1

   Abaqus 2021                                  Date 20-Jul-2023   Time 14:08:44
   For use by UNIVERSITY OF MICHIGAN under license from Dassault Systemes or its subsidiary.



                         The Abaqus Software is a product of:

                           Dassault Systemes SIMULIA Corp.
                           1301 Atwood Avenue, Suite 101W
                              Johnston, RI 02919, USA
 


                   The Abaqus Software is available only under license
                   from Dassault Systemes or its subsidiary and may be
                   used or reproduced only in accordance with the terms
                   of such license.
 
                          On machine ME-ESTRADALAB04 
                          you are authorized to run
                          Abaqus/Standard until 31-Jul-2024

                          Your site id is: 200000000004058 


 
                    For assistance or any other information you may
                    obtain contact information for your local office
                    from the world wide web at:

                      http://www.3ds.com/products/simulia/locations/

 
                * * * * * * * * * * * * * * * * * * * * * * * * * * * * * * 
                *                                                         * 
                *                   *****************                     * 
                *                   *  N O T I C E  *                     * 
                *                   *****************                     * 
                *                                                         * 
                *                                                         * 
                *                       Abaqus 2021                       * 
                *                                                         * 
                *          BUILD ID: 2020_03_06-09.50.37 167380           * 
                *                                                         * 
                *                                                         * 
                *  Please make sure you are using                         * 
                *  release Abaqus 2021 manuals                            * 
                *  plus the notes accompanying this release.              * 
                *                                                         * 
                *                                                         * 
                *                                                         * 
                *                                                         * 
                *                                                         * 
                *   This program may not be used for commercial purposes  * 
                *           without payment of a commercial fee.          * 
                *                                                         * 
                * * * * * * * * * * * * * * * * * * * * * * * * * * * * * * 


 



     PROCESSING PART, INSTANCE, AND ASSEMBLY INFORMATION
   *******************************************************


     END PROCESSING PART, INSTANCE, AND ASSEMBLY INFORMATION
   ***********************************************************




     OPTIONS BEING PROCESSED
   ***************************


  *Heading
  *Node
  *Element, type=C3D4H
  *Nset, nset=ASSEMBLY_PART-1-1_SET-1
  *Elset, elset=ASSEMBLY_PART-1-1_SET-1
  *Nset, nset=ASSEMBLY_BC-SET-1
  *Nset, nset=ASSEMBLY_BC-SET-2
  *Elset, elset=ASSEMBLY_BC-SET-1
  *Elset, elset=ASSEMBLY_BC-SET-2
  *material, name=MATERIAL-1
  *hyperelastic, neohooke
  *solidsection, elset=ASSEMBLY_PART-1-1_SET-1, controls=EC-1, material=MATERIAL-1
  *sectioncontrols, name=EC-1, hourglass=ENHANCED

 ***WARNING: THE PARAMETER HOURGLASS = ENHANCED ON THE SECTION CONTROLS OPTION 
             IS RELEVANT FOR THESE ELEMENTS: C3D8R, CAX4R, CGAX4R, CPEG4R, 
             CPE4R, CPS4R, M3D4R, S4R, SC8R AND THEIR HYBRID, THERMAL AND 
             PRESSURE COUNTERPARTS WHEREVER APPLICABLE. IT IS ALSO RELEVANT FOR 
             ALL TYPES OF MODIFIED TRIANGULAR AND TETRAHEDRAL ELEMENTS. THIS 
             WARNING CAN BE IGNORED IF THE FEATURE IS APPLIED TO THESE ELEMENT 
             TYPES ONLY.
  *solidsection, elset=ASSEMBLY_PART-1-1_SET-1, controls=EC-1, material=MATERIAL-1
  *boundary
  *boundary
  *boundary
  *boundary
  *output, field, variable=PRESELECT
  *output, history, variable=PRESELECT
  *output, field, variable=PRESELECT
  *output, history, variable=PRESELECT
  *output, field, variable=PRESELECT
  *output, history, variable=PRESELECT

 ***NOTE: C3D10HS AND HYBRID TETRAHEDRAL ELEMENTS WILL ENFORCE VOLUMETRIC 
          CONTINUITY ACROSS MATERIAL BOUNDARIES. IN ORDER TO ALLOW 
          DISCONTINUITIES IN THE VOLUMETRIC FIELD USE *TIE.
  *Step, name=Step-1, nlgeom=YES
  *output, field, variable=PRESELECT
  *output, history, variable=PRESELECT
  *Step, name=Step-1, nlgeom=YES
  *Step, name=Step-1, nlgeom=YES
  *static
  *boundary
  *boundary
  *output, field, variable=PRESELECT
  *output, history, variable=PRESELECT
  *nodeprint
  *elprint, position=CENTROIDAL

 ***WARNING: OUTPUT REQUEST DG IS ONLY AVAILABLE FOR *HYPERELASTIC/FOAM AND 
             *USER MATERIAL.
  *nodeprint, nset=ASSEMBLY_BC-SET-1
  *nodeprint, nset=ASSEMBLY_BC-SET-2
  *endstep
  *Step, name=Step-1, nlgeom=YES
  *static
  *boundary
  *boundary
  *endstep

 ***NOTE: Boundary conditions are specified on inactive dof of 679 nodes. The 
          nodes have been identified in node set WarnNodeBCInactiveDof.


                              E L E M E N T,   N O D E,   A N D   S U R F A C E   M A P S


**NOTE: This section may not include complete information about
        members of sets and surfaces. Use *PREPRINT, MODEL=YES 
        in order to get the set and surface members printed    
        under the following sections:                          
            - E L E M E N T   S E T S                          
            - N O D E   S E T S                                
            - S U R F A C E   D E F I N I T I O N S .          


Assembly name: ASSEMBLY
Number of instances: 1

ASSEMBLY LEVEL
  node sets:
    BC-SET-1:
      instance name: PART-1-1
      number of nodes: 679
      nodes: 
        1 2 3 4 5 6 7 8 9 10 11 12 13 14 15 16 17 18 19 20 21 22 23 24
        25 26 27 28 29 30 31 32 33 34 35 36 37 38 39 40 41 42 43 44 45
        46 47 48 49 50 51 52 53 54 55 56 57 58 59 60 61 62 63 64 65 66
        67 68 69 70 71 72 73 74 75 76 77 78 79 80 81 82 83 84 85 86 87
        88 89 90 91 92 93 94 189 190 191 199 200 201 202 203 204 205 206
        207 208 209 210 211 212 213 214 215 216 217 218 219 220 221 222
        223 224 225 226 227 228 229 230 231 232 233 234 235 236 237 238
        239 240 241 242 243 244 245 246 247 248 249 250 251 252 253 254
        255 256 257 258 259 260 261 262 263 264 265 266 267 268 269 270
        271 272 273 274 275 276 277 278 279 280 281 282 283 284 285 286
        287 288 289 290 291 292 387 388 389 409 410 411 412 413 414 415
        416 417 418 419 420 421 422 423 424 425 426 427 428 429 430 431
        432 433 434 435 436 437 438 439 440 441 442 443 444 445 446 447
        448 449 450 451 452 453 454 455 456 457 458 459 460 461 462 463
        464 465 466 467 468 469 470 471 472 473 474 475 476 477 478 479
        480 481 482 483 484 485 486 487 488 489 490 491 492 493 494 495
        496 497 498 499 500 501 502 503 504 505 506 507 508 509 510 511
        512 513 514 515 516 517 518 519 520 521 522 523 524 525 526 527
        528 529 530 531 532 533 534 535 536 537 538 539 540 541 542 543
        544 545 546 547 548 549 550 551 552 553 554 555 556 557 558 559
        560 561 562 563 564 565 566 567 568 569 570 571 572 573 574 575
        576 577 578 579 580 581 582 583 584 585 586 587 588 589 590 591
        592 593 594 595 596 597 598 599 600 601 602 603 604 605 606 607
        608 609 610 611 612 613 614 615 616 617 618 619 620 621 622 623
        624 625 626 627 628 629 630 631 632 633 634 635 636 637 638 639
        640 641 642 643 644 645 646 647 648 649 650 651 652 653 654 655
        656 657 658 659 660 661 662 663 664 665 666 667 668 669 670 671
        672 673 674 675 676 677 678 679 680 681 682 683 684 685 686 687
        688 689 690 691 692 693 694 695 696 697 698 699 700 701 702 703
        704 705 706 707 708 709 710 711 712 713 714 715 716 717 718 719
        720 721 722 723 724 725 726 727 728 729 730 731 732 733 734 735
        736 737 738 739 740 741 742 743 744 745 746 747 748 749 750 751
        752 753 754 755 756 757 758 759 760 761 762 763 764 765 766 767
        768 769 770 771 772 773 774 775 776 777 778 779 780 781 782 783
        784 785 786 787 788 789 790 791 792 793 794 795 796 797 798 799
        800 801 802 803 804 805 806 807 808 809 810 811 812 813 814 815
        816 817 818 819 820 821 822 823 824 825 826 827 828 829 830 831
        832 833 834 835 836 837 838 839 840 841 842 843 844 845 846 847
        848 849 850 851 852 853 854 855 856 857 858 859 860 861 862 863
        864 865 866 867 868 869 870 871 872 873 874 875 876 877 878 1349
        1350 1351 1352 1353 1354 1355 1356 1357 1358 1359 1360 1361 1362
        1363

    BC-SET-2:
      instance name: PART-1-1
      number of nodes: 679
      nodes: 
        95 96 97 98 99 100 101 102 103 104 105 106 107 108 109 110 111
        112 113 114 115 116 117 118 119 120 121 122 123 124 125 126 127
        128 129 130 131 132 133 134 135 136 137 138 139 140 141 142 143
        144 145 146 147 148 149 150 151 152 153 154 155 156 157 158 159
        160 161 162 163 164 165 166 167 168 169 170 171 172 173 174 175
        176 177 178 179 180 181 182 183 184 185 186 187 188 194 195 196
        293 294 295 296 297 298 299 300 301 302 303 304 305 306 307 308
        309 310 311 312 313 314 315 316 317 318 319 320 321 322 323 324
        325 326 327 328 329 330 331 332 333 334 335 336 337 338 339 340
        341 342 343 344 345 346 347 348 349 350 351 352 353 354 355 356
        357 358 359 360 361 362 363 364 365 366 367 368 369 370 371 372
        373 374 375 376 377 378 379 380 381 382 383 384 385 386 392 393
        394 879 880 881 882 883 884 885 886 887 888 889 890 891 892 893
        894 895 896 897 898 899 900 901 902 903 904 905 906 907 908 909
        910 911 912 913 914 915 916 917 918 919 920 921 922 923 924 925
        926 927 928 929 930 931 932 933 934 935 936 937 938 939 940 941
        942 943 944 945 946 947 948 949 950 951 952 953 954 955 956 957
        958 959 960 961 962 963 964 965 966 967 968 969 970 971 972 973
        974 975 976 977 978 979 980 981 982 983 984 985 986 987 988 989
        990 991 992 993 994 995 996 997 998 999 1000 1001 1002 1003 1004
        1005 1006 1007 1008 1009 1010 1011 1012 1013 1014 1015 1016 1017
        1018 1019 1020 1021 1022 1023 1024 1025 1026 1027 1028 1029 1030
        1031 1032 1033 1034 1035 1036 1037 1038 1039 1040 1041 1042 1043
        1044 1045 1046 1047 1048 1049 1050 1051 1052 1053 1054 1055 1056
        1057 1058 1059 1060 1061 1062 1063 1064 1065 1066 1067 1068 1069
        1070 1071 1072 1073 1074 1075 1076 1077 1078 1079 1080 1081 1082
        1083 1084 1085 1086 1087 1088 1089 1090 1091 1092 1093 1094 1095
        1096 1097 1098 1099 1100 1101 1102 1103 1104 1105 1106 1107 1108
        1109 1110 1111 1112 1113 1114 1115 1116 1117 1118 1119 1120 1121
        1122 1123 1124 1125 1126 1127 1128 1129 1130 1131 1132 1133 1134
        1135 1136 1137 1138 1139 1140 1141 1142 1143 1144 1145 1146 1147
        1148 1149 1150 1151 1152 1153 1154 1155 1156 1157 1158 1159 1160
        1161 1162 1163 1164 1165 1166 1167 1168 1169 1170 1171 1172 1173
        1174 1175 1176 1177 1178 1179 1180 1181 1182 1183 1184 1185 1186
        1187 1188 1189 1190 1191 1192 1193 1194 1195 1196 1197 1198 1199
        1200 1201 1202 1203 1204 1205 1206 1207 1208 1209 1210 1211 1212
        1213 1214 1215 1216 1217 1218 1219 1220 1221 1222 1223 1224 1225
        1226 1227 1228 1229 1230 1231 1232 1233 1234 1235 1236 1237 1238
        1239 1240 1241 1242 1243 1244 1245 1246 1247 1248 1249 1250 1251
        1252 1253 1254 1255 1256 1257 1258 1259 1260 1261 1262 1263 1264
        1265 1266 1267 1268 1269 1270 1271 1272 1273 1274 1275 1276 1277
        1278 1279 1280 1281 1282 1283 1284 1285 1286 1287 1288 1289 1290
        1291 1292 1293 1294 1295 1296 1297 1298 1299 1300 1301 1302 1303
        1304 1305 1306 1307 1308 1309 1310 1311 1312 1313 1314 1315 1316
        1317 1318 1319 1320 1321 1322 1323 1324 1325 1326 1327 1328 1329
        1330 1331 1332 1333 1334 1335 1336 1337 1338 1339 1340 1341 1342
        1343 1344 1345 1346 1347 1348 1374 1375 1376 1377 1378 1379 1380
        1381 1382 1383 1384 1385 1386 1387 1388

  element sets:
    BC-SET-1:
      instance name: PART-1-1
      number of elements: 2424
      elements: 
        19 30 36 37 44 56 57 59 63 64 66 67 74 83 84 85 101 111 112 113
        114 115 116 119 121 125 141 142 154 155 156 158 159 162 163 175
        192 194 202 212 214 216 217 218 219 221 222 224 225 229 231 232
        233 234 262 268 275 280 282 284 289 290 291 293 295 298 300 301
        304 305 308 309 312 314 315 316 320 321 322 326 331 333 335 354
        355 360 371 377 379 382 395 396 399 400 402 403 404 407 410 411
        426 427 428 431 433 439 441 443 444 445 446 447 448 450 451 452
        453 454 455 456 457 458 461 464 465 466 467 470 479 480 481 485
        486 487 488 502 503 504 517 527 530 537 541 548 556 558 559 560
        561 564 565 566 567 568 569 571 572 581 582 583 586 587 591 592
        593 594 601 604 610 618 619 620 621 623 624 625 628 632 656 661
        664 665 667 669 670 672 675 679 680 695 715 718 720 723 730 731
        733 735 736 741 758 762 763 765 770 775 778 782 787 792 793 794
        795 797 801 802 803 810 811 831 839 843 844 845 846 847 848 849
        851 852 854 855 860 868 869 872 873 886 889 891 892 895 897 898
        899 906 908 914 918 919 921 922 926 960 961 963 966 972 973 974
        978 986 992 1003 1006 1009 1010 1014 1015 1016 1018 1019 1022
        1024 1025 1028 1035 1036 1043 1045 1047 1048 1049 1051 1055 1056
        1057 1067 1085 1086 1087 1088 1091 1094 1095 1097 1101 1103 1105
        1109 1122 1123 1124 1132 1134 1135 1144 1145 1146 1147 1150 1155
        1163 1175 1176 1177 1178 1179 1180 1181 1182 1183 1184 1186 1201
        1202 1204 1208 1211 1214 1228 1231 1232 1233 1234 1235 1236 1237
        1238 1241 1242 1244 1245 1246 1262 1263 1264 1266 1273 1278 1287
        1288 1289 1290 1293 1296 1297 1298 1307 1312 1314 1316 1317 1318
        1321 1323 1324 1325 1326 1327 1329 1335 1339 1344 1345 1346 1350
        1359 1361 1362 1363 1365 1366 1370 1372 1373 1376 1377 1378 1380
        1391 1394 1415 1416 1417 1418 1425 1428 1429 1431 1433 1437 1442
        1443 1448 1451 1453 1457 1460 1471 1473 1474 1478 1481 1482 1483
        1485 1488 1489 1492 1493 1495 1498 1502 1504 1506 1508 1510 1512
        1523 1525 1527 1537 1544 1548 1549 1554 1555 1556 1557 1558 1559
        1564 1572 1575 1584 1586 1587 1588 1593 1597 1598 1599 1601 1612
        1613 1614 1615 1617 1619 1629 1631 1633 1634 1636 1644 1645 1658
        1660 1663 1668 1670 1672 1673 1676 1682 1684 1685 1689 1700 1702
        1703 1706 1709 1710 1712 1713 1717 1719 1720 1721 1723 1724 1726
        1727 1732 1733 1735 1737 1738 1740 1741 1742 1745 1746 1759 1766
        1768 1777 1778 1780 1782 1789 1790 1792 1795 1796 1804 1807 1808
        1812 1814 1815 1816 1817 1822 1824 1825 1829 1831 1840 1844 1845
        1849 1852 1855 1860 1875 1883 1884 1899 1900 1902 1907 1909 1910
        1912 1914 1920 1932 1934 1937 1938 1940 1945 1949 1953 1955 1956
        1961 1963 1965 1966 1967 1973 1974 1976 1978 1981 1985 1988 1989
        1990 1994 1998 2006 2024 2026 2027 2029 2031 2032 2033 2034 2036
        2037 2039 2040 2042 2047 2049 2050 2051 2054 2057 2065 2067 2068
        2069 2073 2075 2077 2078 2083 2086 2091 2092 2094 2098 2110 2112
        2113 2121 2122 2123 2127 2135 2136 2137 2153 2154 2159 2160 2161
        2163 2164 2165 2169 2171 2172 2174 2180 2181 2183 2184 2192 2197
        2198 2204 2210 2217 2219 2220 2229 2233 2237 2239 2242 2244 2246
        2248 2249 2250 2260 2261 2262 2263 2265 2269 2270 2276 2278 2280
        2281 2282 2283 2284 2286 2288 2289 2293 2294 2295 2296 2297 2298
        2299 2300 2304 2310 2315 2316 2322 2333 2334 2339 2345 2346 2348
        2349 2350 2351 2357 2366 2367 2368 2369 2370 2374 2380 2382 2389
        2391 2392 2394 2398 2403 2411 2420 2422 2425 2426 2435 2436 2443
        2444 2445 2451 2457 2459 2460 2463 2464 2466 2468 2470 2472 2473
        2491 2493 2499 2507 2508 2511 2512 2513 2516 2518 2521 2522 2530
        2560 2562 2563 2567 2572 2573 2575 2576 2582 2583 2584 2613 2616
        2620 2629 2631 2633 2637 2638 2639 2646 2648 2654 2657 2659 2660
        2662 2663 2664 2667 2670 2672 2676 2677 2680 2682 2688 2693 2694
        2697 2704 2710 2714 2715 2716 2726 2727 2728 2729 2735 2737 2738
        2739 2741 2743 2749 2757 2761 2763 2766 2774 2780 2781 2783 2786
        2787 2789 2790 2798 2800 2801 2803 2804 2805 2806 2809 2811 2812
        2814 2821 2822 2824 2825 2845 2849 2852 2853 2855 2857 2866 2879
        2882 2884 2894 2896 2898 2909 2910 2911 2919 2922 2924 2925 2926
        2935 2936 2944 2948 2949 2950 2951 2957 2959 2962 2974 2979 2989
        2991 2994 2999 3000 3011 3015 3016 3023 3024 3026 3027 3031 3038
        3039 3045 3047 3049 3052 3053 3056 3057 3058 3059 3060 3061 3063
        3068 3071 3073 3083 3093 3097 3101 3102 3103 3104 3105 3108 3118
        3119 3123 3128 3129 3130 3131 3138 3140 3141 3143 3145 3152 3154
        3174 3177 3179 3181 3188 3189 3191 3193 3195 3197 3198 3200 3203
        3204 3206 3207 3208 3212 3214 3216 3217 3218 3222 3224 3225 3227
        3228 3229 3245 3252 3258 3262 3268 3269 3270 3272 3273 3274 3281
        3283 3287 3290 3301 3302 3309 3312 3314 3315 3317 3318 3320 3321
        3322 3324 3330 3332 3336 3340 3345 3362 3363 3382 3394 3406 3407
        3409 3423 3430 3437 3441 3443 3452 3453 3454 3459 3468 3482 3485
        3493 3506 3508 3510 3512 3515 3519 3520 3521 3523 3524 3525 3527
        3529 3534 3535 3542 3543 3546 3552 3553 3554 3555 3557 3562 3563
        3574 3577 3578 3591 3597 3598 3604 3605 3606 3607 3608 3615 3616
        3620 3626 3631 3632 3633 3639 3643 3646 3650 3651 3653 3655 3656
        3661 3662 3671 3672 3675 3681 3686 3687 3688 3691 3697 3698 3700
        3709 3710 3713 3714 3718 3723 3738 3739 3740 3746 3752 3760 3761
        3762 3775 3777 3788 3792 3794 3799 3800 3806 3812 3817 3826 3831
        3839 3849 3855 3868 3873 3881 3883 3887 3892 3893 3897 3898 3913
        3915 3919 3923 3935 3941 3955 3961 3962 3965 3970 3971 3988 4001
        4003 4004 4005 4007 4018 4021 4023 4024 4026 4027 4034 4043 4045
        4050 4053 4054 4055 4060 4063 4068 4069 4074 4075 4076 4082 4084
        4108 4111 4113 4119 4120 4123 4127 4131 4142 4144 4145 4146 4147
        4152 4153 4159 4175 4176 4178 4181 4182 4183 4184 4186 4193 4200
        4201 4208 4210 4218 4219 4220 4222 4235 4236 4237 4238 4239 4272
        4277 4278 4281 4283 4285 4293 4294 4300 4302 4314 4315 4322 4325
        4328 4333 4334 4337 4340 4341 4343 4346 4352 4353 4358 4359 4362
        4364 4370 4373 4375 4381 4382 4389 4390 4395 4399 4412 4432 4448
        4449 4455 4456 4458 4462 4473 4475 4477 4478 4495 4496 4501 4509
        4510 4518 4519 4528 4529 4548 4559 4561 4572 4573 4574 4575 4577
        4578 4579 4581 4582 4585 4588 4591 4594 4597 4601 4603 4609 4610
        4624 4629 4638 4640 4641 4642 4646 4647 4649 4660 4661 4673 4678
        4687 4690 4691 4707 4708 4710 4719 4726 4732 4736 4737 4738 4739
        4745 4746 4748 4750 4752 4757 4766 4773 4774 4776 4783 4788 4796
        4800 4801 4804 4806 4808 4815 4823 4824 4838 4843 4846 4847 4850
        4851 4870 4876 4885 4887 4890 4899 4909 4910 4915 4917 4918 4922
        4923 4924 4928 4930 4931 4933 4935 4937 4938 4939 4945 4946 4949
        4950 4952 4956 4962 4964 4968 4973 4986 4992 4997 5000 5001 5002
        5005 5006 5007 5009 5010 5011 5025 5035 5054 5058 5059 5060 5074
        5078 5083 5086 5093 5094 5100 5102 5104 5105 5112 5115 5117 5119
        5121 5124 5125 5145 5148 5149 5153 5155 5160 5162 5173 5174 5183
        5198 5208 5209 5210 5211 5213 5215 5220 5223 5230 5232 5238 5241
        5245 5249 5250 5251 5256 5261 5264 5271 5286 5289 5294 5295 5302
        5305 5310 5326 5330 5331 5333 5335 5338 5339 5341 5345 5353 5355
        5356 5368 5378 5380 5381 5382 5385 5386 5390 5391 5398 5401 5402
        5403 5404 5406 5407 5410 5411 5412 5427 5441 5442 5443 5444 5446
        5447 5459 5460 5461 5462 5464 5467 5469 5486 5492 5501 5502 5520
        5521 5533 5536 5537 5541 5545 5546 5547 5551 5560 5572 5573 5589
        5592 5597 5601 5605 5607 5630 5631 5637 5639 5640 5641 5647 5648
        5652 5659 5661 5663 5664 5670 5672 5675 5682 5685 5686 5687 5688
        5698 5699 5700 5701 5709 5710 5713 5720 5721 5722 5728 5731 5733
        5734 5743 5744 5752 5759 5764 5765 5766 5774 5775 5776 5780 5788
        5789 5790 5792 5797 5805 5806 5825 5827 5829 5839 5840 5850 5852
        5857 5867 5882 5883 5885 5886 5888 5891 5899 5908 5910 5911 5913
        5916 5919 5925 5927 5932 5948 5954 5955 5957 5961 5962 5966 5967
        5968 5969 5970 5973 5974 5975 5977 5981 5987 5994 5997 6002 6005
        6008 6014 6016 6017 6018 6019 6020 6021 6022 6024 6025 6036 6039
        6052 6059 6061 6076 6082 6087 6090 6091 6096 6098 6103 6113 6114
        6121 6125 6127 6129 6140 6141 6142 6150 6163 6164 6166 6179 6182
        6183 6184 6191 6195 6197 6198 6200 6208 6209 6213 6220 6221 6227
        6239 6243 6251 6258 6262 6263 6265 6266 6267 6268 6269 6283 6294
        6295 6296 6318 6324 6325 6326 6327 6328 6329 6333 6336 6354 6356
        6363 6367 6370 6372 6373 6374 6378 6379 6380 6381 6383 6386 6392
        6393 6395 6397 6398 6399 6402 6403 6406 6414 6425 6426 6427 6440
        6442 6450 6453 6454 6470 6472 6474 6480 6484 6491 6494 6498 6499
        6500 6501 6504 6505 6507 6511 6512 6514 6515 6516 6520 6521 6522
        6527 6529 6538 6554 6555 6557 6558 6559 6571 6572 6573 6574 6575
        6588 6596 6597 6599 6608 6611 6614 6615 6616 6627 6630 6638 6643
        6660 6668 6673 6676 6677 6681 6684 6699 6703 6704 6720 6725 6733
        6741 6745 6754 6755 6770 6778 6783 6790 6791 6792 6799 6802 6812
        6813 6815 6817 6820 6828 6829 6837 6853 6858 6861 6872 6883 6884
        6886 6888 6890 6891 6895 6910 6913 6914 6919 6926 6927 6934 6937
        6949 6954 6964 6968 6971 6987 7013 7016 7018 7019 7020 7021 7029
        7034 7035 7037 7039 7041 7056 7075 7085 7092 7102 7104 7105 7107
        7109 7114 7123 7131 7133 7134 7144 7145 7146 7147 7148 7149 7154
        7160 7162 7168 7169 7176 7177 7178 7179 7192 7195 7198 7199 7203
        7204 7205 7206 7207 7231 7232 7236 7239 7240 7246 7247 7250 7253
        7258 7261 7268 7274 7276 7286 7287 7295 7298 7299 7300 7301 7302
        7304 7324 7336 7337 7338 7349 7350 7353 7355 7356 7357 7364 7372
        7373 7375 7381 7384 7385 7388 7398 7399 7400 7402 7405 7406 7409
        7410 7411 7419 7421 7422 7423 7425 7426 7430 7435 7447 7454 7456
        7471 7472 7473 7478 7479 7480 7483 7485 7486 7487 7491 7492 7493
        7503 7513 7514 7515 7516 7521 7525 7526 7527 7529 7543 7546 7553
        7554 7555 7556 7557 7558 7559 7561 7563 7574 7577 7590 7610 7611
        7617 7618 7619 7620 7629 7630 7633 7636 7646 7650 7651 7658 7663
        7664 7666 7668 7670 7674 7677 7678 7689 7690 7694 7721 7731 7737
        7738 7743 7747 7748 7749 7763 7764 7768 7769 7772 7773 7777 7781
        7783 7784 7794 7809 7810 7814 7819 7822 7823 7837 7838 7839 7840
        7846 7847 7857 7860 7861 7865 7874 7875 7902 7913 7914 7915 7924
        7933 7941 7944 7945 7948 7949 7950 7955 7960 7962 7965 7970 7977
        7978 7982 7983 7984 7987 7988 7993 8003 8005 8012 8020 8022 8023
        8024 8025 8026 8027 8030 8033 8034 8035 8037 8038 8040 8042 8044
        8047 8049 8050 8052 8053 8073 8085 8086 8090 8104 8107 8109 8116
        8119 8123 8133 8134 8135 8148 8150 8151 8164 8165 8187 8188 8189
        8190 8191 8198 8201 8203 8209 8215 8216 8217 8218 8219 8222 8224
        8229 8245 8246 8252 8258 8259 8270 8279 8282 8289 8296 8297 8298
        8299 8300 8303 8304 8316 8317 8324 8326 8328 8330 8331 8332 8334
        8335 8338 8341 8342 8346 8348 8351 8364 8375 8376 8379 8380 8389
        8401 8418 8422 8445 8446 8448 8449 8455 8457 8458 8461 8462 8464
        8473 8474 8475 8480 8481 8483 8485 8489 8490 8495 8501 8502 8509
        8513 8518 8520 8532 8537 8540 8542 8543 8550 8552 8572 8576 8577
        8585 8595 8608 8614 8615 8616 8620 8625 8628 8629 8630 8631 8632
        8641 8643 8644 8645 8648 8650 8651 8653 8667 8668 8669 8670 8671
        8672 8674 8677 8679 8682 8683 8684 8686 8688 8699 8704 8705 8706
        8707 8715 8716 8717 8730 8734 8735 8736 8741 8751 8752 8776 8794
        8796 8800 8801 8803 8816 8817 8818 8822 8823 8828 8829 8841 8842
        8862 8863 8870 8884 8895 8896 8898 8899 8901 8902 8903 8923 8940
        8941 8950 8951 8953 8954 8959 8986 8987 8988 9005 9027 9032 9040
        9061 9062 9071 9073 9083 9092 9095 9096 9097 9098 9099 9105 9120
        9132 9158 9173 9175 9176 9179 9183 9185 9200 9214 9215 9245 9247
        9251 9252 9253 9256 9260 9261 9263 9267 9280 9281 9283 9284 9294
        9298 9312 9317 9347 9348 9349 9354 9355 9356 9372 9373 9374 9375
        9377 9380 9389 9393 9394 9395 9403 9410 9413 9415 9418 9420 9433
        9445 9446 9447 9455 9458 9461 9462 9463 9486 9487 9488 9494 9502
        9510 9511 9512 9520 9526 9529 9530 9539 9540 9542 9564 9565 9570
        9571 9572 9573 9574 9575 9576 9578 9583 9586 9587 9590 9602 9603
        9604 9609 9610 9611 9612 9613 9615 9618 9620 9621 9628 9636 9640
        9650 9651 9652 9653 9654 9660 9662 9663 9664 9693 9695 9696 9698
        9699 9715 9730 9731 9734 9743 9744 9745 9747 9748 9749 9751 9752
        9759 9760 9761 9762 9763 9764 9765 9766 9767 9778 9783 9784 9787
        9788 9789 9791 9792 9832 9833 9834 9854 9855 9864 9901 9907 9909
        9931 9933 9952 9954 9999 10002

    BC-SET-2:
      instance name: PART-1-1
      number of elements: 2425
      elements: 
        1 2 3 4 5 7 8 9 10 12 13 17 18 20 21 22 23 31 32 33 34 39 40 41
        42 45 46 47 48 49 50 51 52 58 62 72 77 78 79 80 81 82 87 88 89
        91 92 93 94 95 96 97 102 103 104 105 108 124 127 128 129 130 135
        136 143 144 145 146 164 165 167 169 172 173 176 177 181 182 184
        185 186 190 191 193 195 196 198 200 201 204 207 215 228 235 237
        238 240 241 242 243 246 248 249 250 251 252 253 254 258 259 260
        261 265 272 274 276 279 281 283 287 288 294 296 306 307 310 311
        313 317 318 319 323 324 325 336 337 338 340 341 343 345 346 349
        350 351 357 365 366 367 368 369 370 372 375 376 384 392 409 413
        414 415 416 418 421 422 429 430 432 462 471 472 473 474 475 476
        477 478 483 489 490 491 497 498 505 506 508 509 510 512 513 514
        516 520 521 524 531 533 535 536 539 543 546 551 552 553 554 562
        573 579 580 590 595 597 598 599 606 607 608 609 613 616 617 622
        630 633 635 636 638 641 642 643 646 649 651 653 663 666 682 683
        684 687 689 690 691 692 693 694 697 698 699 700 707 710 711 712
        737 739 747 748 749 750 752 759 760 761 772 773 777 779 780 784
        786 790 791 796 799 804 812 813 818 819 822 823 824 825 826 827
        828 832 833 834 835 840 841 842 850 857 863 867 870 875 877 878
        881 885 893 896 904 907 913 920 923 935 939 941 942 945 950 951
        955 957 958 959 964 965 983 989 990 991 994 1001 1002 1004 1017
        1027 1038 1058 1059 1060 1063 1064 1065 1066 1068 1069 1071 1074
        1075 1079 1080 1082 1084 1089 1090 1092 1093 1096 1099 1106 1112
        1118 1120 1131 1133 1136 1137 1138 1139 1140 1141 1142 1148 1151
        1153 1154 1158 1159 1160 1162 1164 1165 1166 1167 1171 1172 1174
        1197 1210 1215 1216 1217 1218 1219 1220 1222 1223 1224 1230 1247
        1248 1250 1259 1265 1270 1271 1274 1276 1283 1291 1294 1299 1302
        1303 1304 1306 1308 1320 1322 1328 1330 1331 1333 1334 1341 1349
        1355 1358 1360 1364 1367 1368 1369 1371 1374 1375 1383 1384 1387
        1388 1389 1390 1395 1397 1402 1403 1406 1408 1409 1410 1420 1421
        1423 1434 1440 1441 1444 1446 1447 1449 1450 1458 1459 1462 1464
        1468 1479 1480 1484 1486 1487 1490 1491 1494 1496 1497 1499 1500
        1501 1505 1507 1509 1511 1513 1514 1515 1516 1518 1522 1524 1526
        1532 1533 1534 1535 1536 1539 1542 1551 1552 1562 1563 1565 1568
        1569 1570 1571 1573 1576 1577 1578 1581 1592 1594 1605 1606 1616
        1618 1621 1622 1623 1625 1626 1627 1628 1630 1637 1638 1639 1640
        1641 1642 1643 1646 1647 1648 1649 1656 1662 1667 1669 1674 1675
        1678 1681 1688 1690 1691 1692 1694 1695 1697 1698 1699 1701 1714
        1715 1716 1718 1731 1739 1743 1747 1757 1758 1761 1770 1771 1772
        1773 1774 1775 1776 1779 1801 1830 1832 1841 1843 1848 1851 1853
        1861 1872 1873 1874 1879 1885 1886 1887 1889 1890 1897 1898 1901
        1904 1905 1915 1916 1917 1918 1919 1921 1922 1923 1925 1926 1928
        1931 1933 1951 1952 1954 1957 1958 1959 1968 1970 1975 1979 1987
        1991 1992 1996 2000 2003 2008 2015 2019 2020 2030 2035 2045 2046
        2052 2053 2058 2066 2071 2072 2074 2076 2079 2081 2084 2085 2093
        2097 2099 2106 2108 2111 2114 2115 2116 2117 2124 2129 2132 2142
        2143 2144 2145 2146 2147 2148 2151 2156 2167 2173 2175 2176 2177
        2178 2200 2201 2202 2203 2205 2222 2225 2251 2252 2256 2257 2258
        2264 2266 2271 2274 2287 2290 2291 2292 2306 2312 2314 2317 2323
        2324 2328 2329 2332 2336 2338 2341 2342 2344 2352 2353 2356 2364
        2365 2371 2375 2383 2384 2385 2393 2396 2401 2402 2405 2416 2417
        2418 2421 2428 2429 2430 2432 2448 2455 2456 2467 2469 2481 2486
        2487 2488 2492 2494 2495 2496 2497 2498 2501 2502 2504 2509 2510
        2515 2517 2519 2520 2526 2531 2534 2536 2538 2541 2542 2544 2545
        2552 2556 2557 2564 2566 2577 2578 2579 2580 2585 2586 2592 2601
        2602 2609 2612 2617 2619 2626 2627 2628 2630 2635 2644 2650 2651
        2656 2661 2668 2681 2685 2686 2689 2692 2720 2725 2730 2740 2746
        2751 2752 2756 2760 2762 2765 2768 2770 2773 2775 2776 2778 2779
        2782 2784 2785 2793 2802 2807 2808 2810 2815 2817 2819 2823 2828
        2831 2833 2834 2836 2837 2848 2851 2862 2870 2878 2888 2891 2895
        2903 2905 2906 2915 2917 2923 2932 2937 2939 2952 2953 2956 2958
        2961 2967 2970 2983 2985 2990 2992 2995 3010 3013 3018 3021 3029
        3032 3034 3036 3037 3040 3041 3042 3046 3062 3066 3069 3075 3077
        3079 3080 3081 3082 3086 3092 3095 3098 3099 3106 3107 3110 3115
        3116 3120 3121 3134 3137 3139 3142 3144 3147 3151 3156 3159 3160
        3163 3166 3167 3168 3169 3173 3175 3178 3182 3183 3184 3215 3236
        3238 3254 3263 3265 3280 3310 3326 3327 3334 3337 3339 3343 3347
        3348 3353 3355 3359 3365 3370 3376 3379 3380 3383 3388 3390 3391
        3392 3397 3399 3400 3401 3408 3413 3415 3416 3417 3420 3425 3426
        3428 3429 3431 3433 3451 3458 3460 3461 3464 3465 3466 3467 3469
        3471 3475 3479 3480 3498 3501 3503 3504 3507 3511 3516 3517 3537
        3538 3539 3549 3550 3551 3559 3565 3567 3568 3569 3570 3573 3582
        3585 3593 3599 3602 3614 3617 3618 3621 3625 3635 3642 3647 3648
        3652 3658 3659 3660 3663 3665 3677 3684 3694 3702 3704 3705 3706
        3711 3712 3734 3737 3745 3749 3753 3755 3763 3764 3765 3766 3767
        3768 3772 3781 3783 3785 3787 3793 3795 3797 3803 3808 3813 3818
        3819 3820 3822 3825 3830 3832 3838 3841 3842 3843 3845 3846 3847
        3848 3850 3851 3852 3859 3860 3861 3862 3863 3865 3866 3869 3870
        3882 3894 3899 3901 3904 3905 3906 3908 3924 3927 3933 3939 3943
        3945 3946 3947 3948 3950 3952 3953 3958 3960 3963 3976 3977 3979
        3980 3987 3989 3992 3993 3994 3995 3996 4011 4012 4015 4017 4022
        4025 4028 4037 4047 4048 4056 4061 4062 4066 4096 4101 4105 4114
        4115 4124 4125 4128 4139 4140 4149 4156 4158 4161 4165 4166 4167
        4168 4169 4170 4172 4173 4177 4185 4187 4188 4192 4194 4196 4205
        4207 4211 4212 4213 4216 4228 4231 4249 4250 4251 4254 4256 4259
        4260 4263 4264 4265 4266 4268 4269 4270 4289 4292 4296 4297 4301
        4304 4305 4307 4309 4310 4318 4319 4320 4321 4326 4329 4330 4335
        4357 4366 4374 4386 4400 4406 4407 4420 4421 4425 4426 4434 4450
        4451 4461 4467 4468 4472 4476 4482 4485 4493 4502 4508 4525 4527
        4530 4532 4533 4541 4542 4551 4563 4583 4587 4589 4592 4602 4606
        4607 4611 4612 4614 4617 4623 4630 4631 4645 4652 4655 4657 4658
        4659 4679 4681 4682 4688 4693 4694 4696 4711 4712 4715 4716 4724
        4727 4728 4742 4744 4751 4756 4762 4768 4769 4771 4775 4777 4780
        4790 4792 4793 4797 4798 4799 4802 4803 4805 4807 4811 4819 4828
        4831 4836 4837 4839 4840 4854 4862 4865 4881 4883 4886 4889 4891
        4892 4893 4894 4903 4904 4907 4908 4911 4912 4913 4916 4919 4920
        4927 4941 4943 4944 4948 4951 4954 4955 4957 4971 4972 4974 4975
        4979 4980 4981 4984 4987 4999 5004 5017 5024 5026 5034 5038 5046
        5047 5053 5055 5062 5071 5072 5080 5095 5096 5097 5098 5099 5107
        5108 5109 5122 5130 5134 5139 5142 5151 5152 5158 5159 5161 5167
        5170 5179 5180 5189 5190 5191 5194 5201 5202 5225 5226 5234 5240
        5242 5246 5268 5269 5270 5272 5273 5275 5276 5283 5293 5298 5299
        5301 5314 5316 5320 5324 5348 5349 5350 5357 5361 5362 5364 5367
        5369 5372 5379 5383 5384 5388 5392 5399 5413 5414 5417 5429 5430
        5432 5435 5436 5440 5448 5457 5458 5473 5478 5482 5487 5489 5490
        5493 5496 5504 5513 5514 5515 5516 5518 5522 5523 5524 5525 5530
        5534 5535 5538 5540 5543 5544 5549 5557 5558 5559 5564 5574 5584
        5587 5588 5599 5600 5615 5623 5632 5633 5638 5642 5643 5651 5668
        5697 5726 5732 5748 5755 5761 5778 5779 5793 5799 5807 5808 5809
        5820 5822 5823 5828 5830 5836 5846 5847 5848 5849 5851 5853 5856
        5870 5871 5874 5881 5897 5903 5912 5924 5929 5933 5936 5937 5944
        5945 5946 5947 5949 5950 5956 5959 5965 5980 5982 5983 5985 5986
        5993 5995 5999 6000 6007 6010 6023 6032 6033 6035 6037 6041 6042
        6043 6044 6046 6047 6063 6064 6065 6073 6074 6075 6080 6081 6086
        6088 6095 6097 6110 6132 6133 6134 6137 6143 6146 6148 6151 6154
        6156 6159 6162 6169 6171 6172 6175 6181 6187 6196 6202 6203 6233
        6234 6235 6237 6240 6241 6249 6252 6253 6270 6273 6289 6298 6302
        6303 6309 6310 6319 6320 6335 6342 6357 6362 6366 6388 6400 6401
        6404 6413 6415 6416 6423 6430 6438 6441 6455 6456 6457 6460 6462
        6471 6475 6478 6485 6486 6488 6489 6495 6509 6524 6528 6530 6531
        6534 6536 6541 6542 6545 6547 6549 6550 6552 6556 6560 6563 6566
        6576 6579 6591 6592 6593 6601 6609 6621 6622 6623 6635 6639 6640
        6658 6659 6669 6675 6687 6688 6689 6692 6693 6694 6695 6702 6705
        6711 6712 6713 6714 6729 6730 6731 6732 6735 6736 6740 6742 6743
        6762 6765 6766 6767 6771 6772 6774 6775 6776 6794 6795 6798 6811
        6819 6821 6841 6842 6848 6849 6850 6851 6852 6854 6855 6856 6859
        6864 6865 6866 6867 6871 6873 6874 6879 6880 6881 6885 6897 6925
        6933 6939 6940 6945 6948 6952 6955 6962 6963 6966 6967 6974 6976
        6977 6978 6985 6994 6996 6998 7002 7003 7004 7008 7017 7025 7040
        7054 7057 7058 7059 7060 7067 7069 7072 7083 7086 7088 7089 7091
        7108 7110 7113 7116 7117 7119 7120 7121 7124 7126 7129 7135 7138
        7139 7141 7151 7153 7156 7159 7164 7166 7167 7174 7175 7187 7188
        7189 7197 7200 7201 7208 7211 7212 7214 7222 7224 7226 7227 7229
        7241 7244 7248 7266 7267 7269 7270 7273 7275 7280 7281 7282 7309
        7316 7318 7319 7320 7321 7323 7326 7327 7330 7351 7352 7358 7359
        7360 7370 7395 7403 7424 7432 7433 7434 7443 7446 7457 7458 7467
        7468 7469 7470 7474 7475 7481 7484 7488 7501 7504 7505 7510 7520
        7532 7533 7534 7536 7545 7547 7548 7549 7550 7551 7562 7566 7567
        7568 7573 7582 7587 7594 7595 7605 7616 7624 7626 7631 7647 7654
        7656 7657 7661 7665 7671 7672 7682 7687 7688 7693 7699 7700 7703
        7706 7707 7708 7709 7717 7719 7723 7724 7726 7728 7730 7733 7739
        7740 7752 7753 7755 7756 7766 7785 7786 7787 7788 7789 7793 7804
        7806 7807 7808 7811 7815 7830 7836 7842 7843 7844 7845 7848 7853
        7863 7873 7878 7884 7885 7887 7888 7889 7890 7892 7895 7896 7897
        7898 7912 7920 7921 7923 7926 7929 7932 7936 7938 7952 7959 7963
        7964 7966 7967 7969 7971 7974 7975 7985 7990 7991 7994 7995 7998
        8004 8006 8007 8008 8010 8013 8014 8015 8021 8029 8031 8036 8060
        8061 8062 8069 8074 8077 8078 8079 8080 8081 8084 8089 8092 8097
        8100 8105 8106 8110 8115 8126 8127 8129 8132 8138 8140 8152 8163
        8172 8175 8176 8177 8178 8179 8180 8183 8184 8185 8186 8199 8202
        8204 8206 8220 8221 8223 8225 8226 8227 8244 8251 8261 8269 8271
        8276 8278 8280 8286 8287 8307 8311 8312 8314 8333 8339 8344 8345
        8350 8352 8353 8355 8356 8358 8359 8360 8361 8372 8373 8381 8388
        8390 8391 8393 8402 8419 8420 8425 8426 8429 8438 8447 8479 8484
        8492 8493 8494 8497 8500 8503 8505 8507 8508 8514 8515 8516 8517
        8521 8534 8535 8536 8538 8545 8551 8553 8555 8557 8582 8583 8596
        8598 8599 8602 8605 8606 8607 8609 8613 8617 8618 8634 8635 8636
        8637 8638 8640 8646 8647 8678 8687 8689 8690 8691 8692 8693 8718
        8727 8729 8731 8739 8740 8747 8748 8749 8750 8753 8754 8755 8758
        8761 8767 8769 8770 8771 8772 8773 8777 8778 8779 8780 8781 8783
        8785 8804 8805 8806 8809 8810 8811 8812 8814 8815 8824 8835 8836
        8846 8852 8854 8856 8857 8858 8859 8861 8867 8868 8871 8873 8874
        8875 8876 8878 8879 8880 8881 8882 8883 8907 8908 8909 8910 8911
        8912 8913 8922 8934 8935 8936 8937 8948 8955 8964 8965 8966 8967
        8989 8991 8992 9003 9004 9007 9008 9009 9011 9035 9036 9037 9041
        9042 9045 9046 9047 9048 9050 9051 9055 9057 9068 9069 9070 9074
        9075 9082 9093 9094 9102 9103 9104 9128 9129 9133 9134 9135 9136
        9140 9143 9144 9145 9146 9147 9156 9157 9160 9171 9174 9177 9178
        9182 9186 9192 9194 9197 9201 9206 9217 9221 9224 9225 9229 9230
        9232 9236 9238 9239 9243 9244 9248 9249 9257 9266 9279 9282 9287
        9288 9289 9290 9292 9299 9310 9311 9321 9322 9344 9345 9351 9352
        9353 9360 9367 9368 9369 9371 9398 9399 9401 9402 9411 9414 9416
        9419 9421 9424 9435 9438 9439 9443 9444 9448 9449 9450 9457 9469
        9471 9472 9473 9474 9477 9479 9480 9481 9482 9483 9493 9500 9501
        9509 9515 9518 9521 9522 9525 9527 9528 9531 9534 9535 9541 9543
        9553 9554 9579 9582 9588 9591 9592 9594 9595 9597 9607 9608 9622
        9623 9624 9632 9634 9638 9639 9656 9665 9666 9667 9668 9669 9673
        9675 9702 9704 9705 9707 9709 9713 9714 9716 9717 9719 9720 9722
        9725 9726 9727 9728 9732 9742 9750 9754 9770 9771 9772 9777 9790
        9802 9803 9804 9807 9808 9809 9810 9815 9816 9817 9822 9823 9836
        9837 9841 9842 9843 9844 9845 9847 9851 9852 9863 9865 9867 9880
        9883 9884 9890 9971 9972 9990 9992 9995 9996 9997 10004

  Surfaces:

INSTANCE LEVEL
  node sets:
    Instance name: PART-1-1
      node set name: SET-1
        number of nodes: 2613
        nodes: 
          1 2 3 4 5 6 7 8 9 10 11 12 13 14 15 16 17 18 19 20 21 22 23 24
          25 26 27 28 29 30 31 32 33 34 35 36 37 38 39 40 41 42 43 44 45
          46 47 48 49 50 51 52 53 54 55 56 57 58 59 60 61 62 63 64 65 66
          67 68 69 70 71 72 73 74 75 76 77 78 79 80 81 82 83 84 85 86 87
          88 89 90 91 92 93 94 95 96 97 98 99 100 101 102 103 104 105
          106 107 108 109 110 111 112 113 114 115 116 117 118 119 120
          121 122 123 124 125 126 127 128 129 130 131 132 133 134 135
          136 137 138 139 140 141 142 143 144 145 146 147 148 149 150
          151 152 153 154 155 156 157 158 159 160 161 162 163 164 165
          166 167 168 169 170 171 172 173 174 175 176 177 178 179 180
          181 182 183 184 185 186 187 188 189 190 191 192 193 194 195
          196 197 198 199 200 201 202 203 204 205 206 207 208 209 210
          211 212 213 214 215 216 217 218 219 220 221 222 223 224 225
          226 227 228 229 230 231 232 233 234 235 236 237 238 239 240
          241 242 243 244 245 246 247 248 249 250 251 252 253 254 255
          256 257 258 259 260 261 262 263 264 265 266 267 268 269 270
          271 272 273 274 275 276 277 278 279 280 281 282 283 284 285
          286 287 288 289 290 291 292 293 294 295 296 297 298 299 300
          301 302 303 304 305 306 307 308 309 310 311 312 313 314 315
          316 317 318 319 320 321 322 323 324 325 326 327 328 329 330
          331 332 333 334 335 336 337 338 339 340 341 342 343 344 345
          346 347 348 349 350 351 352 353 354 355 356 357 358 359 360
          361 362 363 364 365 366 367 368 369 370 371 372 373 374 375
          376 377 378 379 380 381 382 383 384 385 386 387 388 389 390
          391 392 393 394 395 396 397 398 399 400 401 402 403 404 405
          406 407 408 409 410 411 412 413 414 415 416 417 418 419 420
          421 422 423 424 425 426 427 428 429 430 431 432 433 434 435
          436 437 438 439 440 441 442 443 444 445 446 447 448 449 450
          451 452 453 454 455 456 457 458 459 460 461 462 463 464 465
          466 467 468 469 470 471 472 473 474 475 476 477 478 479 480
          481 482 483 484 485 486 487 488 489 490 491 492 493 494 495
          496 497 498 499 500 501 502 503 504 505 506 507 508 509 510
          511 512 513 514 515 516 517 518 519 520 521 522 523 524 525
          526 527 528 529 530 531 532 533 534 535 536 537 538 539 540
          541 542 543 544 545 546 547 548 549 550 551 552 553 554 555
          556 557 558 559 560 561 562 563 564 565 566 567 568 569 570
          571 572 573 574 575 576 577 578 579 580 581 582 583 584 585
          586 587 588 589 590 591 592 593 594 595 596 597 598 599 600
          601 602 603 604 605 606 607 608 609 610 611 612 613 614 615
          616 617 618 619 620 621 622 623 624 625 626 627 628 629 630
          631 632 633 634 635 636 637 638 639 640 641 642 643 644 645
          646 647 648 649 650 651 652 653 654 655 656 657 658 659 660
          661 662 663 664 665 666 667 668 669 670 671 672 673 674 675
          676 677 678 679 680 681 682 683 684 685 686 687 688 689 690
          691 692 693 694 695 696 697 698 699 700 701 702 703 704 705
          706 707 708 709 710 711 712 713 714 715 716 717 718 719 720
          721 722 723 724 725 726 727 728 729 730 731 732 733 734 735
          736 737 738 739 740 741 742 743 744 745 746 747 748 749 750
          751 752 753 754 755 756 757 758 759 760 761 762 763 764 765
          766 767 768 769 770 771 772 773 774 775 776 777 778 779 780
          781 782 783 784 785 786 787 788 789 790 791 792 793 794 795
          796 797 798 799 800 801 802 803 804 805 806 807 808 809 810
          811 812 813 814 815 816 817 818 819 820 821 822 823 824 825
          826 827 828 829 830 831 832 833 834 835 836 837 838 839 840
          841 842 843 844 845 846 847 848 849 850 851 852 853 854 855
          856 857 858 859 860 861 862 863 864 865 866 867 868 869 870
          871 872 873 874 875 876 877 878 879 880 881 882 883 884 885
          886 887 888 889 890 891 892 893 894 895 896 897 898 899 900
          901 902 903 904 905 906 907 908 909 910 911 912 913 914 915
          916 917 918 919 920 921 922 923 924 925 926 927 928 929 930
          931 932 933 934 935 936 937 938 939 940 941 942 943 944 945
          946 947 948 949 950 951 952 953 954 955 956 957 958 959 960
          961 962 963 964 965 966 967 968 969 970 971 972 973 974 975
          976 977 978 979 980 981 982 983 984 985 986 987 988 989 990
          991 992 993 994 995 996 997 998 999 1000 1001 1002 1003 1004
          1005 1006 1007 1008 1009 1010 1011 1012 1013 1014 1015 1016
          1017 1018 1019 1020 1021 1022 1023 1024 1025 1026 1027 1028
          1029 1030 1031 1032 1033 1034 1035 1036 1037 1038 1039 1040
          1041 1042 1043 1044 1045 1046 1047 1048 1049 1050 1051 1052
          1053 1054 1055 1056 1057 1058 1059 1060 1061 1062 1063 1064
          1065 1066 1067 1068 1069 1070 1071 1072 1073 1074 1075 1076
          1077 1078 1079 1080 1081 1082 1083 1084 1085 1086 1087 1088
          1089 1090 1091 1092 1093 1094 1095 1096 1097 1098 1099 1100
          1101 1102 1103 1104 1105 1106 1107 1108 1109 1110 1111 1112
          1113 1114 1115 1116 1117 1118 1119 1120 1121 1122 1123 1124
          1125 1126 1127 1128 1129 1130 1131 1132 1133 1134 1135 1136
          1137 1138 1139 1140 1141 1142 1143 1144 1145 1146 1147 1148
          1149 1150 1151 1152 1153 1154 1155 1156 1157 1158 1159 1160
          1161 1162 1163 1164 1165 1166 1167 1168 1169 1170 1171 1172
          1173 1174 1175 1176 1177 1178 1179 1180 1181 1182 1183 1184
          1185 1186 1187 1188 1189 1190 1191 1192 1193 1194 1195 1196
          1197 1198 1199 1200 1201 1202 1203 1204 1205 1206 1207 1208
          1209 1210 1211 1212 1213 1214 1215 1216 1217 1218 1219 1220
          1221 1222 1223 1224 1225 1226 1227 1228 1229 1230 1231 1232
          1233 1234 1235 1236 1237 1238 1239 1240 1241 1242 1243 1244
          1245 1246 1247 1248 1249 1250 1251 1252 1253 1254 1255 1256
          1257 1258 1259 1260 1261 1262 1263 1264 1265 1266 1267 1268
          1269 1270 1271 1272 1273 1274 1275 1276 1277 1278 1279 1280
          1281 1282 1283 1284 1285 1286 1287 1288 1289 1290 1291 1292
          1293 1294 1295 1296 1297 1298 1299 1300 1301 1302 1303 1304
          1305 1306 1307 1308 1309 1310 1311 1312 1313 1314 1315 1316
          1317 1318 1319 1320 1321 1322 1323 1324 1325 1326 1327 1328
          1329 1330 1331 1332 1333 1334 1335 1336 1337 1338 1339 1340
          1341 1342 1343 1344 1345 1346 1347 1348 1349 1350 1351 1352
          1353 1354 1355 1356 1357 1358 1359 1360 1361 1362 1363 1364
          1365 1366 1367 1368 1369 1370 1371 1372 1373 1374 1375 1376
          1377 1378 1379 1380 1381 1382 1383 1384 1385 1386 1387 1388
          1389 1390 1391 1392 1393 1394 1395 1396 1397 1398 1399 1400
          1401 1402 1403 1404 1405 1406 1407 1408 1409 1410 1411 1412
          1413 1414 1415 1416 1417 1418 1419 1420 1421 1422 1423 1424
          1425 1426 1427 1428 1429 1430 1431 1432 1433 1434 1435 1436
          1437 1438 1439 1440 1441 1442 1443 1444 1445 1446 1447 1448
          1449 1450 1451 1452 1453 1454 1455 1456 1457 1458 1459 1460
          1461 1462 1463 1464 1465 1466 1467 1468 1469 1470 1471 1472
          1473 1474 1475 1476 1477 1478 1479 1480 1481 1482 1483 1484
          1485 1486 1487 1488 1489 1490 1491 1492 1493 1494 1495 1496
          1497 1498 1499 1500 1501 1502 1503 1504 1505 1506 1507 1508
          1509 1510 1511 1512 1513 1514 1515 1516 1517 1518 1519 1520
          1521 1522 1523 1524 1525 1526 1527 1528 1529 1530 1531 1532
          1533 1534 1535 1536 1537 1538 1539 1540 1541 1542 1543 1544
          1545 1546 1547 1548 1549 1550 1551 1552 1553 1554 1555 1556
          1557 1558 1559 1560 1561 1562 1563 1564 1565 1566 1567 1568
          1569 1570 1571 1572 1573 1574 1575 1576 1577 1578 1579 1580
          1581 1582 1583 1584 1585 1586 1587 1588 1589 1590 1591 1592
          1593 1594 1595 1596 1597 1598 1599 1600 1601 1602 1603 1604
          1605 1606 1607 1608 1609 1610 1611 1612 1613 1614 1615 1616
          1617 1618 1619 1620 1621 1622 1623 1624 1625 1626 1627 1628
          1629 1630 1631 1632 1633 1634 1635 1636 1637 1638 1639 1640
          1641 1642 1643 1644 1645 1646 1647 1648 1649 1650 1651 1652
          1653 1654 1655 1656 1657 1658 1659 1660 1661 1662 1663 1664
          1665 1666 1667 1668 1669 1670 1671 1672 1673 1674 1675 1676
          1677 1678 1679 1680 1681 1682 1683 1684 1685 1686 1687 1688
          1689 1690 1691 1692 1693 1694 1695 1696 1697 1698 1699 1700
          1701 1702 1703 1704 1705 1706 1707 1708 1709 1710 1711 1712
          1713 1714 1715 1716 1717 1718 1719 1720 1721 1722 1723 1724
          1725 1726 1727 1728 1729 1730 1731 1732 1733 1734 1735 1736
          1737 1738 1739 1740 1741 1742 1743 1744 1745 1746 1747 1748
          1749 1750 1751 1752 1753 1754 1755 1756 1757 1758 1759 1760
          1761 1762 1763 1764 1765 1766 1767 1768 1769 1770 1771 1772
          1773 1774 1775 1776 1777 1778 1779 1780 1781 1782 1783 1784
          1785 1786 1787 1788 1789 1790 1791 1792 1793 1794 1795 1796
          1797 1798 1799 1800 1801 1802 1803 1804 1805 1806 1807 1808
          1809 1810 1811 1812 1813 1814 1815 1816 1817 1818 1819 1820
          1821 1822 1823 1824 1825 1826 1827 1828 1829 1830 1831 1832
          1833 1834 1835 1836 1837 1838 1839 1840 1841 1842 1843 1844
          1845 1846 1847 1848 1849 1850 1851 1852 1853 1854 1855 1856
          1857 1858 1859 1860 1861 1862 1863 1864 1865 1866 1867 1868
          1869 1870 1871 1872 1873 1874 1875 1876 1877 1878 1879 1880
          1881 1882 1883 1884 1885 1886 1887 1888 1889 1890 1891 1892
          1893 1894 1895 1896 1897 1898 1899 1900 1901 1902 1903 1904
          1905 1906 1907 1908 1909 1910 1911 1912 1913 1914 1915 1916
          1917 1918 1919 1920 1921 1922 1923 1924 1925 1926 1927 1928
          1929 1930 1931 1932 1933 1934 1935 1936 1937 1938 1939 1940
          1941 1942 1943 1944 1945 1946 1947 1948 1949 1950 1951 1952
          1953 1954 1955 1956 1957 1958 1959 1960 1961 1962 1963 1964
          1965 1966 1967 1968 1969 1970 1971 1972 1973 1974 1975 1976
          1977 1978 1979 1980 1981 1982 1983 1984 1985 1986 1987 1988
          1989 1990 1991 1992 1993 1994 1995 1996 1997 1998 1999 2000
          2001 2002 2003 2004 2005 2006 2007 2008 2009 2010 2011 2012
          2013 2014 2015 2016 2017 2018 2019 2020 2021 2022 2023 2024
          2025 2026 2027 2028 2029 2030 2031 2032 2033 2034 2035 2036
          2037 2038 2039 2040 2041 2042 2043 2044 2045 2046 2047 2048
          2049 2050 2051 2052 2053 2054 2055 2056 2057 2058 2059 2060
          2061 2062 2063 2064 2065 2066 2067 2068 2069 2070 2071 2072
          2073 2074 2075 2076 2077 2078 2079 2080 2081 2082 2083 2084
          2085 2086 2087 2088 2089 2090 2091 2092 2093 2094 2095 2096
          2097 2098 2099 2100 2101 2102 2103 2104 2105 2106 2107 2108
          2109 2110 2111 2112 2113 2114 2115 2116 2117 2118 2119 2120
          2121 2122 2123 2124 2125 2126 2127 2128 2129 2130 2131 2132
          2133 2134 2135 2136 2137 2138 2139 2140 2141 2142 2143 2144
          2145 2146 2147 2148 2149 2150 2151 2152 2153 2154 2155 2156
          2157 2158 2159 2160 2161 2162 2163 2164 2165 2166 2167 2168
          2169 2170 2171 2172 2173 2174 2175 2176 2177 2178 2179 2180
          2181 2182 2183 2184 2185 2186 2187 2188 2189 2190 2191 2192
          2193 2194 2195 2196 2197 2198 2199 2200 2201 2202 2203 2204
          2205 2206 2207 2208 2209 2210 2211 2212 2213 2214 2215 2216
          2217 2218 2219 2220 2221 2222 2223 2224 2225 2226 2227 2228
          2229 2230 2231 2232 2233 2234 2235 2236 2237 2238 2239 2240
          2241 2242 2243 2244 2245 2246 2247 2248 2249 2250 2251 2252
          2253 2254 2255 2256 2257 2258 2259 2260 2261 2262 2263 2264
          2265 2266 2267 2268 2269 2270 2271 2272 2273 2274 2275 2276
          2277 2278 2279 2280 2281 2282 2283 2284 2285 2286 2287 2288
          2289 2290 2291 2292 2293 2294 2295 2296 2297 2298 2299 2300
          2301 2302 2303 2304 2305 2306 2307 2308 2309 2310 2311 2312
          2313 2314 2315 2316 2317 2318 2319 2320 2321 2322 2323 2324
          2325 2326 2327 2328 2329 2330 2331 2332 2333 2334 2335 2336
          2337 2338 2339 2340 2341 2342 2343 2344 2345 2346 2347 2348
          2349 2350 2351 2352 2353 2354 2355 2356 2357 2358 2359 2360
          2361 2362 2363 2364 2365 2366 2367 2368 2369 2370 2371 2372
          2373 2374 2375 2376 2377 2378 2379 2380 2381 2382 2383 2384
          2385 2386 2387 2388 2389 2390 2391 2392 2393 2394 2395 2396
          2397 2398 2399 2400 2401 2402 2403 2404 2405 2406 2407 2408
          2409 2410 2411 2412 2413 2414 2415 2416 2417 2418 2419 2420
          2421 2422 2423 2424 2425 2426 2427 2428 2429 2430 2431 2432
          2433 2434 2435 2436 2437 2438 2439 2440 2441 2442 2443 2444
          2445 2446 2447 2448 2449 2450 2451 2452 2453 2454 2455 2456
          2457 2458 2459 2460 2461 2462 2463 2464 2465 2466 2467 2468
          2469 2470 2471 2472 2473 2474 2475 2476 2477 2478 2479 2480
          2481 2482 2483 2484 2485 2486 2487 2488 2489 2490 2491 2492
          2493 2494 2495 2496 2497 2498 2499 2500 2501 2502 2503 2504
          2505 2506 2507 2508 2509 2510 2511 2512 2513 2514 2515 2516
          2517 2518 2519 2520 2521 2522 2523 2524 2525 2526 2527 2528
          2529 2530 2531 2532 2533 2534 2535 2536 2537 2538 2539 2540
          2541 2542 2543 2544 2545 2546 2547 2548 2549 2550 2551 2552
          2553 2554 2555 2556 2557 2558 2559 2560 2561 2562 2563 2564
          2565 2566 2567 2568 2569 2570 2571 2572 2573 2574 2575 2576
          2577 2578 2579 2580 2581 2582 2583 2584 2585 2586 2587 2588
          2589 2590 2591 2592 2593 2594 2595 2596 2597 2598 2599 2600
          2601 2602 2603 2604 2605 2606 2607 2608 2609 2610 2611 2612
          2613

  element sets:
    Instance name: PART-1-1
      element set name: SET-1
        number of elements: 10004
        elements: 
          1 2 3 4 5 6 7 8 9 10 11 12 13 14 15 16 17 18 19 20 21 22 23 24
          25 26 27 28 29 30 31 32 33 34 35 36 37 38 39 40 41 42 43 44 45
          46 47 48 49 50 51 52 53 54 55 56 57 58 59 60 61 62 63 64 65 66
          67 68 69 70 71 72 73 74 75 76 77 78 79 80 81 82 83 84 85 86 87
          88 89 90 91 92 93 94 95 96 97 98 99 100 101 102 103 104 105
          106 107 108 109 110 111 112 113 114 115 116 117 118 119 120
          121 122 123 124 125 126 127 128 129 130 131 132 133 134 135
          136 137 138 139 140 141 142 143 144 145 146 147 148 149 150
          151 152 153 154 155 156 157 158 159 160 161 162 163 164 165
          166 167 168 169 170 171 172 173 174 175 176 177 178 179 180
          181 182 183 184 185 186 187 188 189 190 191 192 193 194 195
          196 197 198 199 200 201 202 203 204 205 206 207 208 209 210
          211 212 213 214 215 216 217 218 219 220 221 222 223 224 225
          226 227 228 229 230 231 232 233 234 235 236 237 238 239 240
          241 242 243 244 245 246 247 248 249 250 251 252 253 254 255
          256 257 258 259 260 261 262 263 264 265 266 267 268 269 270
          271 272 273 274 275 276 277 278 279 280 281 282 283 284 285
          286 287 288 289 290 291 292 293 294 295 296 297 298 299 300
          301 302 303 304 305 306 307 308 309 310 311 312 313 314 315
          316 317 318 319 320 321 322 323 324 325 326 327 328 329 330
          331 332 333 334 335 336 337 338 339 340 341 342 343 344 345
          346 347 348 349 350 351 352 353 354 355 356 357 358 359 360
          361 362 363 364 365 366 367 368 369 370 371 372 373 374 375
          376 377 378 379 380 381 382 383 384 385 386 387 388 389 390
          391 392 393 394 395 396 397 398 399 400 401 402 403 404 405
          406 407 408 409 410 411 412 413 414 415 416 417 418 419 420
          421 422 423 424 425 426 427 428 429 430 431 432 433 434 435
          436 437 438 439 440 441 442 443 444 445 446 447 448 449 450
          451 452 453 454 455 456 457 458 459 460 461 462 463 464 465
          466 467 468 469 470 471 472 473 474 475 476 477 478 479 480
          481 482 483 484 485 486 487 488 489 490 491 492 493 494 495
          496 497 498 499 500 501 502 503 504 505 506 507 508 509 510
          511 512 513 514 515 516 517 518 519 520 521 522 523 524 525
          526 527 528 529 530 531 532 533 534 535 536 537 538 539 540
          541 542 543 544 545 546 547 548 549 550 551 552 553 554 555
          556 557 558 559 560 561 562 563 564 565 566 567 568 569 570
          571 572 573 574 575 576 577 578 579 580 581 582 583 584 585
          586 587 588 589 590 591 592 593 594 595 596 597 598 599 600
          601 602 603 604 605 606 607 608 609 610 611 612 613 614 615
          616 617 618 619 620 621 622 623 624 625 626 627 628 629 630
          631 632 633 634 635 636 637 638 639 640 641 642 643 644 645
          646 647 648 649 650 651 652 653 654 655 656 657 658 659 660
          661 662 663 664 665 666 667 668 669 670 671 672 673 674 675
          676 677 678 679 680 681 682 683 684 685 686 687 688 689 690
          691 692 693 694 695 696 697 698 699 700 701 702 703 704 705
          706 707 708 709 710 711 712 713 714 715 716 717 718 719 720
          721 722 723 724 725 726 727 728 729 730 731 732 733 734 735
          736 737 738 739 740 741 742 743 744 745 746 747 748 749 750
          751 752 753 754 755 756 757 758 759 760 761 762 763 764 765
          766 767 768 769 770 771 772 773 774 775 776 777 778 779 780
          781 782 783 784 785 786 787 788 789 790 791 792 793 794 795
          796 797 798 799 800 801 802 803 804 805 806 807 808 809 810
          811 812 813 814 815 816 817 818 819 820 821 822 823 824 825
          826 827 828 829 830 831 832 833 834 835 836 837 838 839 840
          841 842 843 844 845 846 847 848 849 850 851 852 853 854 855
          856 857 858 859 860 861 862 863 864 865 866 867 868 869 870
          871 872 873 874 875 876 877 878 879 880 881 882 883 884 885
          886 887 888 889 890 891 892 893 894 895 896 897 898 899 900
          901 902 903 904 905 906 907 908 909 910 911 912 913 914 915
          916 917 918 919 920 921 922 923 924 925 926 927 928 929 930
          931 932 933 934 935 936 937 938 939 940 941 942 943 944 945
          946 947 948 949 950 951 952 953 954 955 956 957 958 959 960
          961 962 963 964 965 966 967 968 969 970 971 972 973 974 975
          976 977 978 979 980 981 982 983 984 985 986 987 988 989 990
          991 992 993 994 995 996 997 998 999 1000 1001 1002 1003 1004
          1005 1006 1007 1008 1009 1010 1011 1012 1013 1014 1015 1016
          1017 1018 1019 1020 1021 1022 1023 1024 1025 1026 1027 1028
          1029 1030 1031 1032 1033 1034 1035 1036 1037 1038 1039 1040
          1041 1042 1043 1044 1045 1046 1047 1048 1049 1050 1051 1052
          1053 1054 1055 1056 1057 1058 1059 1060 1061 1062 1063 1064
          1065 1066 1067 1068 1069 1070 1071 1072 1073 1074 1075 1076
          1077 1078 1079 1080 1081 1082 1083 1084 1085 1086 1087 1088
          1089 1090 1091 1092 1093 1094 1095 1096 1097 1098 1099 1100
          1101 1102 1103 1104 1105 1106 1107 1108 1109 1110 1111 1112
          1113 1114 1115 1116 1117 1118 1119 1120 1121 1122 1123 1124
          1125 1126 1127 1128 1129 1130 1131 1132 1133 1134 1135 1136
          1137 1138 1139 1140 1141 1142 1143 1144 1145 1146 1147 1148
          1149 1150 1151 1152 1153 1154 1155 1156 1157 1158 1159 1160
          1161 1162 1163 1164 1165 1166 1167 1168 1169 1170 1171 1172
          1173 1174 1175 1176 1177 1178 1179 1180 1181 1182 1183 1184
          1185 1186 1187 1188 1189 1190 1191 1192 1193 1194 1195 1196
          1197 1198 1199 1200 1201 1202 1203 1204 1205 1206 1207 1208
          1209 1210 1211 1212 1213 1214 1215 1216 1217 1218 1219 1220
          1221 1222 1223 1224 1225 1226 1227 1228 1229 1230 1231 1232
          1233 1234 1235 1236 1237 1238 1239 1240 1241 1242 1243 1244
          1245 1246 1247 1248 1249 1250 1251 1252 1253 1254 1255 1256
          1257 1258 1259 1260 1261 1262 1263 1264 1265 1266 1267 1268
          1269 1270 1271 1272 1273 1274 1275 1276 1277 1278 1279 1280
          1281 1282 1283 1284 1285 1286 1287 1288 1289 1290 1291 1292
          1293 1294 1295 1296 1297 1298 1299 1300 1301 1302 1303 1304
          1305 1306 1307 1308 1309 1310 1311 1312 1313 1314 1315 1316
          1317 1318 1319 1320 1321 1322 1323 1324 1325 1326 1327 1328
          1329 1330 1331 1332 1333 1334 1335 1336 1337 1338 1339 1340
          1341 1342 1343 1344 1345 1346 1347 1348 1349 1350 1351 1352
          1353 1354 1355 1356 1357 1358 1359 1360 1361 1362 1363 1364
          1365 1366 1367 1368 1369 1370 1371 1372 1373 1374 1375 1376
          1377 1378 1379 1380 1381 1382 1383 1384 1385 1386 1387 1388
          1389 1390 1391 1392 1393 1394 1395 1396 1397 1398 1399 1400
          1401 1402 1403 1404 1405 1406 1407 1408 1409 1410 1411 1412
          1413 1414 1415 1416 1417 1418 1419 1420 1421 1422 1423 1424
          1425 1426 1427 1428 1429 1430 1431 1432 1433 1434 1435 1436
          1437 1438 1439 1440 1441 1442 1443 1444 1445 1446 1447 1448
          1449 1450 1451 1452 1453 1454 1455 1456 1457 1458 1459 1460
          1461 1462 1463 1464 1465 1466 1467 1468 1469 1470 1471 1472
          1473 1474 1475 1476 1477 1478 1479 1480 1481 1482 1483 1484
          1485 1486 1487 1488 1489 1490 1491 1492 1493 1494 1495 1496
          1497 1498 1499 1500 1501 1502 1503 1504 1505 1506 1507 1508
          1509 1510 1511 1512 1513 1514 1515 1516 1517 1518 1519 1520
          1521 1522 1523 1524 1525 1526 1527 1528 1529 1530 1531 1532
          1533 1534 1535 1536 1537 1538 1539 1540 1541 1542 1543 1544
          1545 1546 1547 1548 1549 1550 1551 1552 1553 1554 1555 1556
          1557 1558 1559 1560 1561 1562 1563 1564 1565 1566 1567 1568
          1569 1570 1571 1572 1573 1574 1575 1576 1577 1578 1579 1580
          1581 1582 1583 1584 1585 1586 1587 1588 1589 1590 1591 1592
          1593 1594 1595 1596 1597 1598 1599 1600 1601 1602 1603 1604
          1605 1606 1607 1608 1609 1610 1611 1612 1613 1614 1615 1616
          1617 1618 1619 1620 1621 1622 1623 1624 1625 1626 1627 1628
          1629 1630 1631 1632 1633 1634 1635 1636 1637 1638 1639 1640
          1641 1642 1643 1644 1645 1646 1647 1648 1649 1650 1651 1652
          1653 1654 1655 1656 1657 1658 1659 1660 1661 1662 1663 1664
          1665 1666 1667 1668 1669 1670 1671 1672 1673 1674 1675 1676
          1677 1678 1679 1680 1681 1682 1683 1684 1685 1686 1687 1688
          1689 1690 1691 1692 1693 1694 1695 1696 1697 1698 1699 1700
          1701 1702 1703 1704 1705 1706 1707 1708 1709 1710 1711 1712
          1713 1714 1715 1716 1717 1718 1719 1720 1721 1722 1723 1724
          1725 1726 1727 1728 1729 1730 1731 1732 1733 1734 1735 1736
          1737 1738 1739 1740 1741 1742 1743 1744 1745 1746 1747 1748
          1749 1750 1751 1752 1753 1754 1755 1756 1757 1758 1759 1760
          1761 1762 1763 1764 1765 1766 1767 1768 1769 1770 1771 1772
          1773 1774 1775 1776 1777 1778 1779 1780 1781 1782 1783 1784
          1785 1786 1787 1788 1789 1790 1791 1792 1793 1794 1795 1796
          1797 1798 1799 1800 1801 1802 1803 1804 1805 1806 1807 1808
          1809 1810 1811 1812 1813 1814 1815 1816 1817 1818 1819 1820
          1821 1822 1823 1824 1825 1826 1827 1828 1829 1830 1831 1832
          1833 1834 1835 1836 1837 1838 1839 1840 1841 1842 1843 1844
          1845 1846 1847 1848 1849 1850 1851 1852 1853 1854 1855 1856
          1857 1858 1859 1860 1861 1862 1863 1864 1865 1866 1867 1868
          1869 1870 1871 1872 1873 1874 1875 1876 1877 1878 1879 1880
          1881 1882 1883 1884 1885 1886 1887 1888 1889 1890 1891 1892
          1893 1894 1895 1896 1897 1898 1899 1900 1901 1902 1903 1904
          1905 1906 1907 1908 1909 1910 1911 1912 1913 1914 1915 1916
          1917 1918 1919 1920 1921 1922 1923 1924 1925 1926 1927 1928
          1929 1930 1931 1932 1933 1934 1935 1936 1937 1938 1939 1940
          1941 1942 1943 1944 1945 1946 1947 1948 1949 1950 1951 1952
          1953 1954 1955 1956 1957 1958 1959 1960 1961 1962 1963 1964
          1965 1966 1967 1968 1969 1970 1971 1972 1973 1974 1975 1976
          1977 1978 1979 1980 1981 1982 1983 1984 1985 1986 1987 1988
          1989 1990 1991 1992 1993 1994 1995 1996 1997 1998 1999 2000
          2001 2002 2003 2004 2005 2006 2007 2008 2009 2010 2011 2012
          2013 2014 2015 2016 2017 2018 2019 2020 2021 2022 2023 2024
          2025 2026 2027 2028 2029 2030 2031 2032 2033 2034 2035 2036
          2037 2038 2039 2040 2041 2042 2043 2044 2045 2046 2047 2048
          2049 2050 2051 2052 2053 2054 2055 2056 2057 2058 2059 2060
          2061 2062 2063 2064 2065 2066 2067 2068 2069 2070 2071 2072
          2073 2074 2075 2076 2077 2078 2079 2080 2081 2082 2083 2084
          2085 2086 2087 2088 2089 2090 2091 2092 2093 2094 2095 2096
          2097 2098 2099 2100 2101 2102 2103 2104 2105 2106 2107 2108
          2109 2110 2111 2112 2113 2114 2115 2116 2117 2118 2119 2120
          2121 2122 2123 2124 2125 2126 2127 2128 2129 2130 2131 2132
          2133 2134 2135 2136 2137 2138 2139 2140 2141 2142 2143 2144
          2145 2146 2147 2148 2149 2150 2151 2152 2153 2154 2155 2156
          2157 2158 2159 2160 2161 2162 2163 2164 2165 2166 2167 2168
          2169 2170 2171 2172 2173 2174 2175 2176 2177 2178 2179 2180
          2181 2182 2183 2184 2185 2186 2187 2188 2189 2190 2191 2192
          2193 2194 2195 2196 2197 2198 2199 2200 2201 2202 2203 2204
          2205 2206 2207 2208 2209 2210 2211 2212 2213 2214 2215 2216
          2217 2218 2219 2220 2221 2222 2223 2224 2225 2226 2227 2228
          2229 2230 2231 2232 2233 2234 2235 2236 2237 2238 2239 2240
          2241 2242 2243 2244 2245 2246 2247 2248 2249 2250 2251 2252
          2253 2254 2255 2256 2257 2258 2259 2260 2261 2262 2263 2264
          2265 2266 2267 2268 2269 2270 2271 2272 2273 2274 2275 2276
          2277 2278 2279 2280 2281 2282 2283 2284 2285 2286 2287 2288
          2289 2290 2291 2292 2293 2294 2295 2296 2297 2298 2299 2300
          2301 2302 2303 2304 2305 2306 2307 2308 2309 2310 2311 2312
          2313 2314 2315 2316 2317 2318 2319 2320 2321 2322 2323 2324
          2325 2326 2327 2328 2329 2330 2331 2332 2333 2334 2335 2336
          2337 2338 2339 2340 2341 2342 2343 2344 2345 2346 2347 2348
          2349 2350 2351 2352 2353 2354 2355 2356 2357 2358 2359 2360
          2361 2362 2363 2364 2365 2366 2367 2368 2369 2370 2371 2372
          2373 2374 2375 2376 2377 2378 2379 2380 2381 2382 2383 2384
          2385 2386 2387 2388 2389 2390 2391 2392 2393 2394 2395 2396
          2397 2398 2399 2400 2401 2402 2403 2404 2405 2406 2407 2408
          2409 2410 2411 2412 2413 2414 2415 2416 2417 2418 2419 2420
          2421 2422 2423 2424 2425 2426 2427 2428 2429 2430 2431 2432
          2433 2434 2435 2436 2437 2438 2439 2440 2441 2442 2443 2444
          2445 2446 2447 2448 2449 2450 2451 2452 2453 2454 2455 2456
          2457 2458 2459 2460 2461 2462 2463 2464 2465 2466 2467 2468
          2469 2470 2471 2472 2473 2474 2475 2476 2477 2478 2479 2480
          2481 2482 2483 2484 2485 2486 2487 2488 2489 2490 2491 2492
          2493 2494 2495 2496 2497 2498 2499 2500 2501 2502 2503 2504
          2505 2506 2507 2508 2509 2510 2511 2512 2513 2514 2515 2516
          2517 2518 2519 2520 2521 2522 2523 2524 2525 2526 2527 2528
          2529 2530 2531 2532 2533 2534 2535 2536 2537 2538 2539 2540
          2541 2542 2543 2544 2545 2546 2547 2548 2549 2550 2551 2552
          2553 2554 2555 2556 2557 2558 2559 2560 2561 2562 2563 2564
          2565 2566 2567 2568 2569 2570 2571 2572 2573 2574 2575 2576
          2577 2578 2579 2580 2581 2582 2583 2584 2585 2586 2587 2588
          2589 2590 2591 2592 2593 2594 2595 2596 2597 2598 2599 2600
          2601 2602 2603 2604 2605 2606 2607 2608 2609 2610 2611 2612
          2613 2614 2615 2616 2617 2618 2619 2620 2621 2622 2623 2624
          2625 2626 2627 2628 2629 2630 2631 2632 2633 2634 2635 2636
          2637 2638 2639 2640 2641 2642 2643 2644 2645 2646 2647 2648
          2649 2650 2651 2652 2653 2654 2655 2656 2657 2658 2659 2660
          2661 2662 2663 2664 2665 2666 2667 2668 2669 2670 2671 2672
          2673 2674 2675 2676 2677 2678 2679 2680 2681 2682 2683 2684
          2685 2686 2687 2688 2689 2690 2691 2692 2693 2694 2695 2696
          2697 2698 2699 2700 2701 2702 2703 2704 2705 2706 2707 2708
          2709 2710 2711 2712 2713 2714 2715 2716 2717 2718 2719 2720
          2721 2722 2723 2724 2725 2726 2727 2728 2729 2730 2731 2732
          2733 2734 2735 2736 2737 2738 2739 2740 2741 2742 2743 2744
          2745 2746 2747 2748 2749 2750 2751 2752 2753 2754 2755 2756
          2757 2758 2759 2760 2761 2762 2763 2764 2765 2766 2767 2768
          2769 2770 2771 2772 2773 2774 2775 2776 2777 2778 2779 2780
          2781 2782 2783 2784 2785 2786 2787 2788 2789 2790 2791 2792
          2793 2794 2795 2796 2797 2798 2799 2800 2801 2802 2803 2804
          2805 2806 2807 2808 2809 2810 2811 2812 2813 2814 2815 2816
          2817 2818 2819 2820 2821 2822 2823 2824 2825 2826 2827 2828
          2829 2830 2831 2832 2833 2834 2835 2836 2837 2838 2839 2840
          2841 2842 2843 2844 2845 2846 2847 2848 2849 2850 2851 2852
          2853 2854 2855 2856 2857 2858 2859 2860 2861 2862 2863 2864
          2865 2866 2867 2868 2869 2870 2871 2872 2873 2874 2875 2876
          2877 2878 2879 2880 2881 2882 2883 2884 2885 2886 2887 2888
          2889 2890 2891 2892 2893 2894 2895 2896 2897 2898 2899 2900
          2901 2902 2903 2904 2905 2906 2907 2908 2909 2910 2911 2912
          2913 2914 2915 2916 2917 2918 2919 2920 2921 2922 2923 2924
          2925 2926 2927 2928 2929 2930 2931 2932 2933 2934 2935 2936
          2937 2938 2939 2940 2941 2942 2943 2944 2945 2946 2947 2948
          2949 2950 2951 2952 2953 2954 2955 2956 2957 2958 2959 2960
          2961 2962 2963 2964 2965 2966 2967 2968 2969 2970 2971 2972
          2973 2974 2975 2976 2977 2978 2979 2980 2981 2982 2983 2984
          2985 2986 2987 2988 2989 2990 2991 2992 2993 2994 2995 2996
          2997 2998 2999 3000 3001 3002 3003 3004 3005 3006 3007 3008
          3009 3010 3011 3012 3013 3014 3015 3016 3017 3018 3019 3020
          3021 3022 3023 3024 3025 3026 3027 3028 3029 3030 3031 3032
          3033 3034 3035 3036 3037 3038 3039 3040 3041 3042 3043 3044
          3045 3046 3047 3048 3049 3050 3051 3052 3053 3054 3055 3056
          3057 3058 3059 3060 3061 3062 3063 3064 3065 3066 3067 3068
          3069 3070 3071 3072 3073 3074 3075 3076 3077 3078 3079 3080
          3081 3082 3083 3084 3085 3086 3087 3088 3089 3090 3091 3092
          3093 3094 3095 3096 3097 3098 3099 3100 3101 3102 3103 3104
          3105 3106 3107 3108 3109 3110 3111 3112 3113 3114 3115 3116
          3117 3118 3119 3120 3121 3122 3123 3124 3125 3126 3127 3128
          3129 3130 3131 3132 3133 3134 3135 3136 3137 3138 3139 3140
          3141 3142 3143 3144 3145 3146 3147 3148 3149 3150 3151 3152
          3153 3154 3155 3156 3157 3158 3159 3160 3161 3162 3163 3164
          3165 3166 3167 3168 3169 3170 3171 3172 3173 3174 3175 3176
          3177 3178 3179 3180 3181 3182 3183 3184 3185 3186 3187 3188
          3189 3190 3191 3192 3193 3194 3195 3196 3197 3198 3199 3200
          3201 3202 3203 3204 3205 3206 3207 3208 3209 3210 3211 3212
          3213 3214 3215 3216 3217 3218 3219 3220 3221 3222 3223 3224
          3225 3226 3227 3228 3229 3230 3231 3232 3233 3234 3235 3236
          3237 3238 3239 3240 3241 3242 3243 3244 3245 3246 3247 3248
          3249 3250 3251 3252 3253 3254 3255 3256 3257 3258 3259 3260
          3261 3262 3263 3264 3265 3266 3267 3268 3269 3270 3271 3272
          3273 3274 3275 3276 3277 3278 3279 3280 3281 3282 3283 3284
          3285 3286 3287 3288 3289 3290 3291 3292 3293 3294 3295 3296
          3297 3298 3299 3300 3301 3302 3303 3304 3305 3306 3307 3308
          3309 3310 3311 3312 3313 3314 3315 3316 3317 3318 3319 3320
          3321 3322 3323 3324 3325 3326 3327 3328 3329 3330 3331 3332
          3333 3334 3335 3336 3337 3338 3339 3340 3341 3342 3343 3344
          3345 3346 3347 3348 3349 3350 3351 3352 3353 3354 3355 3356
          3357 3358 3359 3360 3361 3362 3363 3364 3365 3366 3367 3368
          3369 3370 3371 3372 3373 3374 3375 3376 3377 3378 3379 3380
          3381 3382 3383 3384 3385 3386 3387 3388 3389 3390 3391 3392
          3393 3394 3395 3396 3397 3398 3399 3400 3401 3402 3403 3404
          3405 3406 3407 3408 3409 3410 3411 3412 3413 3414 3415 3416
          3417 3418 3419 3420 3421 3422 3423 3424 3425 3426 3427 3428
          3429 3430 3431 3432 3433 3434 3435 3436 3437 3438 3439 3440
          3441 3442 3443 3444 3445 3446 3447 3448 3449 3450 3451 3452
          3453 3454 3455 3456 3457 3458 3459 3460 3461 3462 3463 3464
          3465 3466 3467 3468 3469 3470 3471 3472 3473 3474 3475 3476
          3477 3478 3479 3480 3481 3482 3483 3484 3485 3486 3487 3488
          3489 3490 3491 3492 3493 3494 3495 3496 3497 3498 3499 3500
          3501 3502 3503 3504 3505 3506 3507 3508 3509 3510 3511 3512
          3513 3514 3515 3516 3517 3518 3519 3520 3521 3522 3523 3524
          3525 3526 3527 3528 3529 3530 3531 3532 3533 3534 3535 3536
          3537 3538 3539 3540 3541 3542 3543 3544 3545 3546 3547 3548
          3549 3550 3551 3552 3553 3554 3555 3556 3557 3558 3559 3560
          3561 3562 3563 3564 3565 3566 3567 3568 3569 3570 3571 3572
          3573 3574 3575 3576 3577 3578 3579 3580 3581 3582 3583 3584
          3585 3586 3587 3588 3589 3590 3591 3592 3593 3594 3595 3596
          3597 3598 3599 3600 3601 3602 3603 3604 3605 3606 3607 3608
          3609 3610 3611 3612 3613 3614 3615 3616 3617 3618 3619 3620
          3621 3622 3623 3624 3625 3626 3627 3628 3629 3630 3631 3632
          3633 3634 3635 3636 3637 3638 3639 3640 3641 3642 3643 3644
          3645 3646 3647 3648 3649 3650 3651 3652 3653 3654 3655 3656
          3657 3658 3659 3660 3661 3662 3663 3664 3665 3666 3667 3668
          3669 3670 3671 3672 3673 3674 3675 3676 3677 3678 3679 3680
          3681 3682 3683 3684 3685 3686 3687 3688 3689 3690 3691 3692
          3693 3694 3695 3696 3697 3698 3699 3700 3701 3702 3703 3704
          3705 3706 3707 3708 3709 3710 3711 3712 3713 3714 3715 3716
          3717 3718 3719 3720 3721 3722 3723 3724 3725 3726 3727 3728
          3729 3730 3731 3732 3733 3734 3735 3736 3737 3738 3739 3740
          3741 3742 3743 3744 3745 3746 3747 3748 3749 3750 3751 3752
          3753 3754 3755 3756 3757 3758 3759 3760 3761 3762 3763 3764
          3765 3766 3767 3768 3769 3770 3771 3772 3773 3774 3775 3776
          3777 3778 3779 3780 3781 3782 3783 3784 3785 3786 3787 3788
          3789 3790 3791 3792 3793 3794 3795 3796 3797 3798 3799 3800
          3801 3802 3803 3804 3805 3806 3807 3808 3809 3810 3811 3812
          3813 3814 3815 3816 3817 3818 3819 3820 3821 3822 3823 3824
          3825 3826 3827 3828 3829 3830 3831 3832 3833 3834 3835 3836
          3837 3838 3839 3840 3841 3842 3843 3844 3845 3846 3847 3848
          3849 3850 3851 3852 3853 3854 3855 3856 3857 3858 3859 3860
          3861 3862 3863 3864 3865 3866 3867 3868 3869 3870 3871 3872
          3873 3874 3875 3876 3877 3878 3879 3880 3881 3882 3883 3884
          3885 3886 3887 3888 3889 3890 3891 3892 3893 3894 3895 3896
          3897 3898 3899 3900 3901 3902 3903 3904 3905 3906 3907 3908
          3909 3910 3911 3912 3913 3914 3915 3916 3917 3918 3919 3920
          3921 3922 3923 3924 3925 3926 3927 3928 3929 3930 3931 3932
          3933 3934 3935 3936 3937 3938 3939 3940 3941 3942 3943 3944
          3945 3946 3947 3948 3949 3950 3951 3952 3953 3954 3955 3956
          3957 3958 3959 3960 3961 3962 3963 3964 3965 3966 3967 3968
          3969 3970 3971 3972 3973 3974 3975 3976 3977 3978 3979 3980
          3981 3982 3983 3984 3985 3986 3987 3988 3989 3990 3991 3992
          3993 3994 3995 3996 3997 3998 3999 4000 4001 4002 4003 4004
          4005 4006 4007 4008 4009 4010 4011 4012 4013 4014 4015 4016
          4017 4018 4019 4020 4021 4022 4023 4024 4025 4026 4027 4028
          4029 4030 4031 4032 4033 4034 4035 4036 4037 4038 4039 4040
          4041 4042 4043 4044 4045 4046 4047 4048 4049 4050 4051 4052
          4053 4054 4055 4056 4057 4058 4059 4060 4061 4062 4063 4064
          4065 4066 4067 4068 4069 4070 4071 4072 4073 4074 4075 4076
          4077 4078 4079 4080 4081 4082 4083 4084 4085 4086 4087 4088
          4089 4090 4091 4092 4093 4094 4095 4096 4097 4098 4099 4100
          4101 4102 4103 4104 4105 4106 4107 4108 4109 4110 4111 4112
          4113 4114 4115 4116 4117 4118 4119 4120 4121 4122 4123 4124
          4125 4126 4127 4128 4129 4130 4131 4132 4133 4134 4135 4136
          4137 4138 4139 4140 4141 4142 4143 4144 4145 4146 4147 4148
          4149 4150 4151 4152 4153 4154 4155 4156 4157 4158 4159 4160
          4161 4162 4163 4164 4165 4166 4167 4168 4169 4170 4171 4172
          4173 4174 4175 4176 4177 4178 4179 4180 4181 4182 4183 4184
          4185 4186 4187 4188 4189 4190 4191 4192 4193 4194 4195 4196
          4197 4198 4199 4200 4201 4202 4203 4204 4205 4206 4207 4208
          4209 4210 4211 4212 4213 4214 4215 4216 4217 4218 4219 4220
          4221 4222 4223 4224 4225 4226 4227 4228 4229 4230 4231 4232
          4233 4234 4235 4236 4237 4238 4239 4240 4241 4242 4243 4244
          4245 4246 4247 4248 4249 4250 4251 4252 4253 4254 4255 4256
          4257 4258 4259 4260 4261 4262 4263 4264 4265 4266 4267 4268
          4269 4270 4271 4272 4273 4274 4275 4276 4277 4278 4279 4280
          4281 4282 4283 4284 4285 4286 4287 4288 4289 4290 4291 4292
          4293 4294 4295 4296 4297 4298 4299 4300 4301 4302 4303 4304
          4305 4306 4307 4308 4309 4310 4311 4312 4313 4314 4315 4316
          4317 4318 4319 4320 4321 4322 4323 4324 4325 4326 4327 4328
          4329 4330 4331 4332 4333 4334 4335 4336 4337 4338 4339 4340
          4341 4342 4343 4344 4345 4346 4347 4348 4349 4350 4351 4352
          4353 4354 4355 4356 4357 4358 4359 4360 4361 4362 4363 4364
          4365 4366 4367 4368 4369 4370 4371 4372 4373 4374 4375 4376
          4377 4378 4379 4380 4381 4382 4383 4384 4385 4386 4387 4388
          4389 4390 4391 4392 4393 4394 4395 4396 4397 4398 4399 4400
          4401 4402 4403 4404 4405 4406 4407 4408 4409 4410 4411 4412
          4413 4414 4415 4416 4417 4418 4419 4420 4421 4422 4423 4424
          4425 4426 4427 4428 4429 4430 4431 4432 4433 4434 4435 4436
          4437 4438 4439 4440 4441 4442 4443 4444 4445 4446 4447 4448
          4449 4450 4451 4452 4453 4454 4455 4456 4457 4458 4459 4460
          4461 4462 4463 4464 4465 4466 4467 4468 4469 4470 4471 4472
          4473 4474 4475 4476 4477 4478 4479 4480 4481 4482 4483 4484
          4485 4486 4487 4488 4489 4490 4491 4492 4493 4494 4495 4496
          4497 4498 4499 4500 4501 4502 4503 4504 4505 4506 4507 4508
          4509 4510 4511 4512 4513 4514 4515 4516 4517 4518 4519 4520
          4521 4522 4523 4524 4525 4526 4527 4528 4529 4530 4531 4532
          4533 4534 4535 4536 4537 4538 4539 4540 4541 4542 4543 4544
          4545 4546 4547 4548 4549 4550 4551 4552 4553 4554 4555 4556
          4557 4558 4559 4560 4561 4562 4563 4564 4565 4566 4567 4568
          4569 4570 4571 4572 4573 4574 4575 4576 4577 4578 4579 4580
          4581 4582 4583 4584 4585 4586 4587 4588 4589 4590 4591 4592
          4593 4594 4595 4596 4597 4598 4599 4600 4601 4602 4603 4604
          4605 4606 4607 4608 4609 4610 4611 4612 4613 4614 4615 4616
          4617 4618 4619 4620 4621 4622 4623 4624 4625 4626 4627 4628
          4629 4630 4631 4632 4633 4634 4635 4636 4637 4638 4639 4640
          4641 4642 4643 4644 4645 4646 4647 4648 4649 4650 4651 4652
          4653 4654 4655 4656 4657 4658 4659 4660 4661 4662 4663 4664
          4665 4666 4667 4668 4669 4670 4671 4672 4673 4674 4675 4676
          4677 4678 4679 4680 4681 4682 4683 4684 4685 4686 4687 4688
          4689 4690 4691 4692 4693 4694 4695 4696 4697 4698 4699 4700
          4701 4702 4703 4704 4705 4706 4707 4708 4709 4710 4711 4712
          4713 4714 4715 4716 4717 4718 4719 4720 4721 4722 4723 4724
[...]
        145     -4.7919096E-04
        146     -2.5190916E-04
        147     -4.7754365E-04
        148     -2.3752519E-04
        149     -3.6521054E-04
        150     -4.4405768E-04
        151     -2.1227798E-04
        152     -3.3124044E-04
        153     -4.2148733E-04
        154     -2.1664828E-04
        155     -3.8757106E-04
        156     -2.2068135E-04
        157     -3.3801594E-04
        158     -3.1040703E-04
        159     -4.5368276E-04
        160     -2.0795039E-04
        161     -3.5917880E-04
        162     -3.9537607E-04
        163     -4.8918853E-04
        164     -4.0771995E-04
        165     -2.6938090E-04
        166     -4.8985647E-04
        167     -4.1000527E-04
        168     -4.5285844E-04
        169     -5.8657178E-04
        170     -3.2812624E-04
        171     -5.0249717E-04
        172     -6.0044323E-04
        173     -4.9106364E-04
        174     -4.5410381E-04
        175     -3.0708788E-04
        176     -5.7043825E-04
        177     -4.0522286E-04
        178     -3.6502845E-04
        179     -3.0447967E-04
        180     -3.7273917E-04
        181     -3.8742015E-04
        182     -1.7049057E-04
        183     -3.8061254E-04
        184     -2.7278369E-04
        185     -2.3638490E-04
        186     -1.2684265E-04
        187      4.4771308E-05
        188     -5.8060798E-04
        194     -4.0070421E-04
        195     -3.8983483E-04
        196     -3.3303698E-04
        293     -4.5034613E-04
        294     -3.8101688E-04
        295     -3.4058201E-04
        296     -2.9346494E-04
        297     -4.1869394E-04
        298     -2.3064741E-04
        299     -3.0026008E-04
        300     -4.3266544E-04
        301     -3.1523366E-04
        302     -2.1069027E-04
        303     -3.7514004E-04
        304     -3.2166197E-04
        305     -2.9046392E-04
        306     -2.1000127E-04
        307     -4.1989271E-04
        308     -3.5505841E-04
        309     -2.7404450E-04
        310     -3.2984389E-04
        311     -3.5264703E-04
        312     -4.1424972E-04
        313     -3.0001066E-04
        314     -3.7509956E-04
        315     -3.9242205E-04
        316     -4.3736940E-04
        317     -5.6735834E-04
        318     -2.9830484E-04
        319     -5.7507621E-04
        320     -3.1158791E-04
        321     -4.7128125E-04
        322     -6.3042515E-04
        323     -3.2696073E-04
        324     -6.5915320E-04
        325     -5.1932074E-04
        326     -5.3101983E-04
        327     -3.5768016E-04
        328     -7.0488401E-04
        329     -5.3026283E-04
        330     -5.1973990E-04
        331     -3.9323856E-04
        332     -6.6266853E-04
        333     -4.9488547E-04
        334     -5.0715212E-04
        335     -5.0878841E-04
        336     -4.7420392E-04
        337     -3.2695590E-04
        338     -4.6253216E-04
        339     -4.4626909E-04
        340     -4.3890884E-04
        341     -3.8828836E-04
        342     -2.7239173E-04
        343     -5.1433960E-04
        344     -2.4797687E-04
        345     -4.7878110E-04
        346     -3.4859230E-04
        347     -3.6294122E-04
        348     -3.3059426E-04
        349     -3.3173967E-04
        350     -2.9703583E-04
        351     -3.2675220E-04
        352     -3.2683337E-04
        353     -3.2818570E-04
        354     -2.0876590E-04
        355     -4.3309407E-04
        356     -3.2252795E-04
        357     -3.5091422E-04
        358     -2.3427893E-04
        359     -4.7147963E-04
        360     -3.4583589E-04
        361     -2.5508371E-04
        362     -5.5984029E-04
        363     -5.3671269E-04
        364     -2.9830477E-04
        365     -6.1236529E-04
        366     -3.9779480E-04
        367     -4.4706793E-04
        368     -4.8538512E-04
        369     -4.8304863E-04
        370     -4.5853642E-04
        371     -3.1308651E-04
        372     -4.4342617E-04
        373     -6.1546228E-04
        374     -4.5132337E-04
        375     -4.3703284E-04
        376     -3.5359726E-04
        377     -4.3736649E-04
        378     -3.5533961E-04
        379     -1.7991127E-04
        380     -3.2526750E-04
        381     -3.3634917E-04
        382     -3.0335461E-04
        383     -1.5546694E-04
        384      2.4922366E-05
        385     -1.6633359E-04
        386     -5.7787610E-04
        392     -2.6182876E-04
        393     -5.7307644E-04
        394     -2.5087466E-04
        879     -1.7453291E-03
        880     -1.8292899E-03
        881     -1.8286714E-03
        882     -1.8586492E-03
        883     -1.8043363E-03
        884      4.2891630E-04
        885      4.9436941E-04
        886      5.1392272E-04
        887      3.5326986E-04
        888      2.6738423E-04
        889     -7.3309278E-04
        890     -7.1992381E-04
        891     -7.7661193E-04
        892     -5.8342879E-04
        893     -5.2099530E-04
        894     -6.1004507E-04
        895     -8.4796996E-04
        896     -8.4344661E-04
        897     -9.4511806E-04
        898     -7.3460035E-04
        899     -4.8950063E-04
        900     -3.8659998E-04
        901     -5.7597911E-04
        902     -5.7902128E-04
        903     -6.9543477E-04
        904     -6.8154198E-04
        905     -6.2819193E-04
        906     -5.9775401E-04
        907     -5.3501716E-04
        908     -5.7858879E-04
        909     -6.7255797E-04
        910     -6.6299669E-04
        911     -4.8840559E-04
        912     -5.4899046E-04
        913     -6.6220465E-04
        914     -5.8673980E-04
        915     -5.8049135E-04
        916     -5.4451370E-04
        917     -6.6716734E-04
        918     -5.0628435E-04
        919     -5.6142415E-04
        920     -6.4781335E-04
        921     -5.9175185E-04
        922     -6.0192779E-04
        923     -5.2364020E-04
        924     -6.5549106E-04
        925     -7.2821526E-04
        926     -7.2762940E-04
        927     -6.3732987E-04
        928     -6.4664113E-04
        929     -6.1237879E-04
        930     -5.0079579E-04
        931     -4.8794110E-04
        932     -6.2544298E-04
        933     -6.0679232E-04
        934     -5.7427529E-04
        935     -6.1125195E-04
        936     -7.2338059E-04
        937     -5.8872572E-04
        938     -6.3167196E-04
        939     -6.4288054E-04
        940     -6.2253905E-04
        941     -6.0626882E-04
        942     -6.2726388E-04
        943     -5.8464236E-04
        944     -6.2683772E-04
        945     -6.1770983E-04
        946     -7.3210035E-04
        947     -6.2408173E-04
        948     -6.3530104E-04
        949     -6.1221848E-04
        950     -6.5682197E-04
        951     -5.4513114E-04
        952     -6.2668530E-04
        953     -5.9836877E-04
        954     -6.4200902E-04
        955     -5.9775807E-04
        956     -5.1157689E-04
        957     -6.5510142E-04
        958     -6.6360072E-04
        959     -6.9705934E-04
        960     -6.8759180E-04
        961     -7.4587860E-04
        962     -6.3973533E-04
        963     -6.8451202E-04
        964     -6.5819126E-04
        965     -6.7751359E-04
        966     -7.1412964E-04
        967     -6.6909662E-04
        968     -6.2689497E-04
        969     -6.6026050E-04
        970     -6.5272193E-04
        971     -5.3915172E-04
        972     -7.1383483E-04
        973     -6.7665673E-04
        974     -7.2232717E-04
        975     -7.3641194E-04
        976     -8.2589229E-04
        977     -5.6994141E-04
        978     -6.6652649E-04
        979     -7.5054741E-04
        980     -7.5642568E-04
        981     -6.3608589E-04
        982     -8.7390516E-04
        983     -8.2780709E-04
        984     -7.3739570E-04
        985     -6.9113327E-04
        986     -8.5857700E-04
        987     -7.6783133E-04
        988     -7.4969878E-04
        989     -7.8472302E-04
        990     -8.3122581E-04
        991     -7.8233164E-04
        992     -7.2908038E-04
        993     -7.5396575E-04
        994     -7.7498348E-04
        995     -7.8358814E-04
        996     -6.9914692E-04
        997     -8.3926653E-04
        998     -8.2326780E-04
        999     -8.7637756E-04
       1000     -8.4516317E-04
       1001     -1.0595755E-03
       1002     -1.0703914E-03
       1003     -9.1161701E-04
       1004     -9.0196370E-04
       1005     -6.6551575E-04
       1006     -8.4854201E-04
       1007     -9.0432217E-04
       1008     -8.8045667E-04
       1009     -8.8943935E-04
       1010     -9.0010991E-04
       1011     -5.9535186E-04
       1012     -8.7605656E-04
       1013     -8.6864133E-04
       1014     -9.4029372E-04
       1015     -9.4441243E-04
       1016     -1.2155088E-03
       1017     -9.1243932E-04
       1018     -9.3483656E-04
       1019     -9.4129042E-04
       1020     -9.4514439E-04
       1021     -9.7511547E-04
       1022     -9.8386633E-04
       1023     -9.5912362E-04
       1024     -9.7868031E-04
       1025     -9.5225497E-04
       1026     -6.5556676E-04
       1027     -9.4691195E-04
       1028     -9.6290392E-04
       1029     -9.8695257E-04
       1030     -1.0014887E-03
       1031     -1.3031416E-03
       1032     -9.9098875E-04
       1033     -9.9952297E-04
       1034     -1.0334633E-03
       1035     -1.0160628E-03
       1036     -8.6225037E-04
       1037     -1.0429780E-03
       1038     -1.0069401E-03
       1039     -9.9491389E-04
       1040     -1.0062506E-03
       1041     -8.4741080E-04
       1042     -9.8255438E-04
       1043     -9.8911336E-04
       1044     -1.0363749E-03
       1045     -1.0327514E-03
       1046     -1.2181563E-03
       1047     -1.0491065E-03
       1048     -1.0633585E-03
       1049     -1.0804552E-03
       1050     -1.0323027E-03
       1051     -1.1912958E-03
       1052     -1.0674270E-03
       1053     -9.8658866E-04
       1054     -1.0679090E-03
       1055     -1.0701541E-03
       1056     -8.9555719E-04
       1057     -1.0169644E-03
       1058     -1.0860173E-03
       1059     -9.5050353E-04
       1060     -1.0064897E-03
       1061     -1.0573516E-03
       1062     -1.0562875E-03
       1063     -1.0387317E-03
       1064     -1.0675316E-03
       1065     -1.0649035E-03
       1066     -1.0212418E-03
       1067     -1.0084006E-03
       1068     -1.0493897E-03
       1069     -1.0468592E-03
       1070     -1.0147293E-03
       1071     -1.0481645E-03
       1072     -1.0826720E-03
       1073     -1.0379514E-03
       1074     -1.0082524E-03
       1075     -1.0518218E-03
       1076     -8.1884889E-04
       1077     -1.0392161E-03
       1078     -1.0096502E-03
       1079     -1.0352674E-03
       1080     -1.0417103E-03
       1081     -1.2049643E-03
       1082     -9.5255026E-04
       1083     -1.0107554E-03
       1084     -1.0367903E-03
       1085     -9.5803156E-04
       1086     -1.0109304E-03
       1087     -1.0667796E-03
       1088     -1.0331042E-03
       1089     -9.3250929E-04
       1090     -9.9515074E-04
       1091     -9.4385319E-04
       1092     -9.6879660E-04
       1093     -9.6828254E-04
       1094     -9.0295766E-04
       1095     -8.9891344E-04
       1096     -7.6466188E-04
       1097     -9.1089290E-04
       1098     -9.2962021E-04
       1099     -9.0682395E-04
       1100     -9.5112461E-04
       1101     -1.1267604E-03
       1102     -9.5247675E-04
       1103     -8.4990476E-04
       1104     -9.1505529E-04
       1105     -9.0474587E-04
       1106     -8.2983464E-04
       1107     -8.5299563E-04
       1108     -9.4236058E-04
       1109     -8.7511351E-04
       1110     -8.4814382E-04
       1111     -1.0706823E-03
       1112     -8.9447894E-04
       1113     -8.6613732E-04
       1114     -8.1260908E-04
       1115     -7.7838045E-04
       1116     -8.2477524E-04
       1117     -8.2289552E-04
       1118     -7.6686313E-04
       1119     -8.4674684E-04
       1120     -7.8452344E-04
       1121     -7.9265342E-04
       1122     -7.9613164E-04
       1123     -7.5015975E-04
       1124     -8.0582712E-04
       1125     -8.3336142E-04
       1126     -9.1668295E-04
       1127     -7.8454402E-04
       1128     -8.1464874E-04
       1129     -7.4054258E-04
       1130     -7.1014671E-04
       1131     -4.5725957E-04
       1132     -7.1855085E-04
       1133     -7.2181930E-04
       1134     -6.9009175E-04
       1135     -7.1780879E-04
       1136     -9.7469671E-04
       1137     -7.2654677E-04
       1138     -7.4708277E-04
       1139     -7.2905802E-04
       1140     -7.1827679E-04
       1141     -4.7307567E-04
       1142     -7.1957501E-04
       1143     -6.7848915E-04
       1144     -6.7286572E-04
       1145     -6.6034300E-04
       1146     -8.1262533E-04
       1147     -6.8598825E-04
       1148     -6.7394654E-04
       1149     -6.8611643E-04
       1150     -6.8240255E-04
       1151     -6.6670400E-04
       1152     -6.6906687E-04
       1153     -6.9791437E-04
       1154     -6.3724969E-04
       1155     -6.7150310E-04
       1156     -5.5726641E-04
       1157     -6.7398367E-04
       1158     -6.2396075E-04
       1159     -6.3154812E-04
       1160     -6.4057867E-04
       1161     -7.6829372E-04
       1162     -6.4700843E-04
       1163     -6.2656449E-04
       1164     -6.4915827E-04
       1165     -6.6669915E-04
       1166     -6.3368002E-04
       1167     -6.4159659E-04
       1168     -6.6602967E-04
       1169     -6.2146615E-04
       1170     -6.4346473E-04
       1171     -5.2818779E-04
       1172     -6.6230546E-04
       1173     -6.1053659E-04
       1174     -6.0969241E-04
       1175     -6.3007110E-04
       1176     -7.5299834E-04
       1177     -6.3700928E-04
       1178     -6.2914085E-04
       1179     -6.9490909E-04
       1180     -6.6204506E-04
       1181     -6.6593585E-04
       1182     -5.4486566E-04
       1183     -6.9247580E-04
       1184     -6.4570671E-04
       1185     -6.5551472E-04
       1186     -7.6856458E-04
       1187     -7.5407249E-04
       1188     -6.1652716E-04
       1189     -6.6038065E-04
       1190     -6.4685919E-04
       1191     -5.0493705E-04
       1192     -6.4978422E-04
       1193     -7.2277737E-04
       1194     -6.8395058E-04
       1195     -6.9083405E-04
       1196     -6.8095586E-04
       1197     -6.6222140E-04
       1198     -6.4302203E-04
       1199     -6.9551528E-04
       1200     -6.5437926E-04
       1201     -7.4217514E-04
       1202     -5.9574058E-04
       1203     -7.0306771E-04
       1204     -6.9806867E-04
       1205     -7.1651739E-04
       1206     -7.7952908E-04
       1207     -8.3332114E-04
       1208     -7.2493964E-04
       1209     -7.1512275E-04
       1210     -7.6572011E-04
       1211     -6.2627020E-04
       1212     -7.1295566E-04
       1213     -7.0249928E-04
       1214     -7.3353691E-04
       1215     -7.1828890E-04
       1216     -7.5303726E-04
       1217     -7.6185961E-04
       1218     -7.6651650E-04
       1219     -7.6824805E-04
       1220     -7.5165135E-04
       1221     -7.1849574E-04
       1222     -7.3287868E-04
       1223     -7.4036314E-04
       1224     -7.4703541E-04
       1225     -6.6305001E-04
       1226     -8.3502095E-04
       1227     -8.0993098E-04
       1228     -7.7528979E-04
       1229     -8.1762909E-04
       1230     -8.2852675E-04
       1231     -8.1827028E-04
       1232     -7.8688959E-04
       1233     -8.1634154E-04
       1234     -8.4591231E-04
       1235     -9.1221240E-04
       1236     -1.0321603E-03
       1237     -8.6440801E-04
       1238     -8.7030220E-04
       1239     -8.8130648E-04
       1240     -8.4415328E-04
       1241     -7.0986237E-04
       1242     -8.6973625E-04
       1243     -8.0908044E-04
       1244     -8.7104984E-04
       1245     -9.0127234E-04
       1246     -8.7123525E-04
       1247     -9.0804701E-04
       1248     -9.0526066E-04
       1249     -9.2402366E-04
       1250     -9.3916433E-04
       1251     -9.7166096E-04
       1252     -7.7475526E-04
       1253     -9.2065682E-04
       1254     -9.3863434E-04
       1255     -9.0672703E-04
       1256     -9.1128532E-04
       1257     -1.1101760E-03
       1258     -9.5485939E-04
       1259     -9.4864282E-04
       1260     -9.5924668E-04
       1261     -9.5188728E-04
       1262     -9.2838738E-04
       1263     -9.1754170E-04
       1264     -9.5781746E-04
       1265     -9.7165731E-04
       1266     -8.2362891E-04
       1267     -9.2317620E-04
       1268     -9.2400277E-04
       1269     -9.4327651E-04
       1270     -9.3083328E-04
       1271     -1.0874528E-03
       1272     -9.9711616E-04
       1273     -1.0139731E-03
       1274     -9.8058990E-04
       1275     -9.7686923E-04
       1276     -9.6187516E-04
       1277     -9.5186482E-04
       1278     -9.4900901E-04
       1279     -9.1900789E-04
       1280     -8.9041136E-04
       1281     -8.6702211E-04
       1282     -8.8230453E-04
       1283     -8.1778568E-04
       1284     -8.4634041E-04
       1285     -9.5875056E-04
       1286     -8.3835565E-04
       1287     -9.6594177E-04
       1288     -1.0100452E-03
       1289     -9.3614861E-04
       1290     -8.7577054E-04
       1291     -9.1780106E-04
       1292     -8.4506319E-04
       1293     -8.8839399E-04
       1294     -9.1719563E-04
       1295     -8.8988365E-04
       1296     -7.6483075E-04
       1297     -8.7288289E-04
       1298     -8.2077261E-04
       1299     -5.7400097E-04
       1300     -8.5392109E-04
       1301     -1.0637052E-03
       1302     -8.1080867E-04
       1303     -8.1686393E-04
       1304     -7.7240756E-04
       1305     -5.6303129E-04
       1306     -6.4133832E-04
       1307     -8.5190174E-04
       1308     -6.6136389E-04
       1309     -9.1360793E-04
       1310     -7.4075061E-04
       1311     -8.8953955E-04
       1312     -6.9292113E-04
       1313     -7.6879867E-04
       1314     -6.4081595E-04
       1315     -6.9803372E-04
       1316     -5.5945972E-04
       1317     -6.2360970E-04
       1318     -7.2400031E-04
       1319     -3.2162672E-04
       1320     -3.6480406E-04
       1321     -5.9343222E-04
       1322     -5.4849166E-04
       1323     -6.3270187E-04
       1324     -7.9576219E-04
       1325     -8.7510176E-04
       1326     -5.9141376E-04
       1327     -7.8759301E-04
       1328     -3.6760727E-04
       1329     -3.2019815E-04
       1330     -4.9658100E-04
       1331     -2.4851564E-04
       1332     -5.5061814E-04
       1333     -7.7650547E-04
       1334     -4.8163827E-05
       1335      1.0269759E-04
       1336     -1.4952980E-04
       1337      2.6586011E-04
       1338      2.3007742E-04
       1339     -5.2209287E-04
       1340     -5.9915600E-04
       1341     -6.0720039E-04
       1342     -6.2578247E-04
       1343     -5.3425120E-04
       1344     -9.9321050E-04
       1345     -1.0047148E-03
       1346     -9.1729915E-04
       1347     -9.7201434E-04
       1348     -9.9280718E-04
       1374     -7.5306276E-04
       1375     -8.4199642E-04
       1376     -9.4254420E-04
       1377     -8.3358891E-04
       1378     -8.3512183E-04
       1379     -8.1378360E-04
       1380     -8.6185113E-04
       1381     -7.0399616E-04
       1382     -9.0596599E-04
       1383     -8.8089483E-04
       1384     -8.5966347E-04
       1385     -8.1118999E-04
       1386     -8.1563403E-04
       1387     -9.4142030E-04
       1388     -8.8237599E-04

 MAXIMUM         5.1392E-04
 AT NODE               886

 MINIMUM        -1.8586E-03
 AT NODE               882


          THE ANALYSIS HAS BEEN COMPLETED



                              ANALYSIS COMPLETE
                              WITH      2 WARNING MESSAGES ON THE DAT FILE



     JOB TIME SUMMARY
       USER TIME (SEC)      =   6.3000    
       SYSTEM TIME (SEC)    =   1.4000    
       TOTAL CPU TIME (SEC) =   7.7000    
       WALLCLOCK TIME (SEC) =          3
