*Heading
** Job name: sq-8mm_sin-per-2_sin-amp-1mm_tet_test Model name: Model-1
** Generated by: Abaqus/CAE 2021
*Preprint, echo=NO, model=NO, history=NO, contact=NO
**
** PARTS
**
*Part, name=Part-1
*End Part
**
**
** ASSEMBLY
**
*Assembly, name=Assembly
**
*Instance, name=Part-1-1, part=Part-1
*Node
1, -20, 4, 0
2, -19.5833, 3.8695, 0
3, -19.1667, 3.7412, 0
4, -18.75, 3.6173, 0
5, -18.3333, 3.5, 0
6, -17.9167, 3.3912, 0
7, -17.5, 3.2929, 0
8, -17.0833, 3.2066, 0
9, -16.6667, 3.134, 0
10, -16.25, 3.0761, 0
11, -15.8333, 3.0341, 0
12, -15.4167, 3.0086, 0
13, -15, 3, 0
14, -14.5833, 3.0086, 0
15, -14.1667, 3.0341, 0
16, -13.75, 3.0761, 0
17, -13.3333, 3.134, 0
18, -12.9167, 3.2066, 0
19, -12.5, 3.2929, 0
20, -12.0833, 3.3912, 0
** ... 16921 like lines cut
*Element, type=C3D10H
1, 2564, 2565, 2084, 2070, 2610, 2608, 2609, 2611, 2612, 2613
2, 2564, 2085, 2084, 2565, 2615, 2614, 2609, 2610, 2616, 2608
3, 2564, 2423, 2451, 2565, 2619, 2617, 2618, 2610, 2620, 2621
4, 2564, 2451, 2085, 2565, 2618, 2622, 2615, 2610, 2621, 2616
5, 1779, 2346, 2345, 2545, 2625, 2623, 2624, 2626, 2627, 2628
6, 2588, 2591, 2342, 2544, 2631, 2629, 2630, 2632, 2633, 2634
7, 2588, 2363, 2342, 2591, 2636, 2635, 2630, 2631, 2637, 2629
8, 2544, 1858, 2309, 2331, 2640, 2638, 2639, 2641, 2642, 2643
9, 2544, 1858, 2357, 2353, 2640, 2644, 2645, 2646, 2647, 2648
10, 2588, 2342, 2341, 2544, 2630, 2649, 2650, 2632, 2634, 2651
11, 2588, 2341, 2331, 2544, 2650, 2652, 2653, 2632, 2651, 2641
12, 2588, 2331, 2341, 2362, 2653, 2652, 2650, 2654, 2655, 2656
13, 2588, 2341, 2342, 2362, 2650, 2649, 2630, 2654, 2656, 2657
14, 1755, 2450, 2451, 2455, 2660, 2658, 2659, 2661, 2662, 2663
15, 1755, 2568, 2450, 2455, 2665, 2664, 2660, 2661, 2666, 2662
16, 1789, 2061, 2448, 2561, 2669, 2667, 2668, 2670, 2671, 2672
17, 1789, 1744, 2451, 1754, 2675, 2673, 2674, 2676, 2677, 2678
18, 1789, 1754, 2451, 2568, 2676, 2678, 2674, 2679, 2680, 2681
19, 1755, 2451, 2450, 2568, 2659, 2658, 2660, 2665, 2681, 2664
20, 1791, 2464, 2489, 1758, 2684, 2682, 2683, 2685, 2686, 2687
** ... 9973 like lines cut
*Nset, nset=Set-1, generate
1, 16941, 1
*Elset, elset=Set-1, generate
1, 9993, 1
** Section: Section-1
*Solid Section, elset=Set-1, controls=EC-1, material=Material-1
,
*End Instance
**
*Nset, nset=bc-set-1, instance=Part-1-1
1, 2, 3, 4, 5, 6, 7, 8, 9, 10, 11, 12, 13, 14, 15, 16
17, 18, 19, 20, 21, 22, 23, 24, 25, 26, 27, 28, 29, 30, 31, 32
33, 34, 35, 36, 37, 38, 39, 40, 41, 42, 43, 44, 45, 46, 47, 48
49, 50, 51, 52, 53, 54, 55, 56, 57, 58, 59, 60, 61, 62, 63, 64
65, 66, 67, 68, 69, 70, 71, 72, 73, 74, 75, 76, 77, 78, 79, 80
81, 82, 83, 84, 85, 86, 87, 88, 89, 90, 91, 92, 93, 94, 189, 190
191, 199, 200, 201, 202, 203, 204, 205, 206, 207, 208, 209, 210, 211, 212, 213
214, 215, 216, 217, 218, 219, 220, 221, 222, 223, 224, 225, 226, 227, 228, 229
230, 231, 232, 233, 234, 235, 236, 237, 238, 239, 240, 241, 242, 243, 244, 245
246, 247, 248, 249, 250, 251, 252, 253, 254, 255, 256, 257, 258, 259, 260, 261
262, 263, 264, 265, 266, 267, 268, 269, 270, 271, 272, 273, 274, 275, 276, 277
278, 279, 280, 281, 282, 283, 284, 285, 286, 287, 288, 289, 290, 291, 292, 387
388, 389, 409, 410, 411, 412, 413, 414, 415, 416, 417, 418, 419, 420, 421, 422
423, 424, 425, 426, 427, 428, 429, 430, 431, 432, 433, 434, 435, 436, 437, 438
439, 440, 441, 442, 443, 444, 445, 446, 447, 448, 449, 450, 451, 452, 453, 454
455, 456, 457, 458, 459, 460, 461, 462, 463, 464, 465, 466, 467, 468, 469, 470
471, 472, 473, 474, 475, 476, 477, 478, 479, 480, 481, 482, 483, 484, 485, 486
487, 488, 489, 490, 491, 492, 493, 494, 495, 496, 497, 498, 499, 500, 501, 502
503, 504, 505, 506, 507, 508, 509, 510, 511, 512, 513, 514, 515, 516, 517, 518
519, 520, 521, 522, 523, 524, 525, 526, 527, 528, 529, 530, 531, 532, 533, 534
** ... 137 like lines cut
*Elset, elset=bc-set-1, instance=Part-1-1
30, 72, 73, 75, 79, 86, 88, 89, 91, 92, 93, 95, 96, 98, 99, 102
106, 108, 109, 110, 111, 112, 113, 114, 115, 116, 117, 120, 122, 135, 136, 138
140, 141, 152, 153, 158, 167, 170, 171, 178, 184, 189, 191, 194, 202, 204, 205
210, 214, 216, 220, 222, 223, 226, 227, 235, 246, 252, 254, 259, 260, 268, 271
273, 274, 275, 276, 277, 278, 279, 280, 281, 283, 284, 285, 287, 291, 292, 294
299, 304, 306, 308, 309, 314, 316, 330, 340, 342, 343, 346, 347, 348, 349, 351
352, 358, 362, 364, 365, 368, 369, 380, 383, 384, 387, 388, 389, 390, 400, 401
402, 403, 404, 408, 409, 414, 418, 419, 427, 429, 432, 434, 438, 439, 442, 444
445, 446, 459, 462, 471, 474, 479, 480, 482, 485, 486, 488, 492, 495, 496, 497
499, 514, 524, 526, 528, 529, 530, 531, 532, 533, 534, 535, 536, 537, 543, 545
547, 549, 550, 551, 553, 554, 566, 573, 575, 577, 578, 579, 583, 588, 589, 590
591, 592, 593, 594, 595, 596, 597, 599, 600, 601, 602, 603, 604, 605, 607, 608
609, 611, 613, 614, 615, 619, 621, 622, 626, 627, 628, 635, 636, 637, 638, 639
642, 643, 644, 646, 647, 649, 651, 652, 655, 656, 657, 658, 660, 661, 662, 664
665, 671, 672, 674, 675, 677, 679, 680, 681, 682, 683, 684, 685, 686, 687, 689
691, 693, 696, 703, 705, 712, 715, 716, 717, 723, 724, 736, 742, 745, 746, 747
748, 749, 750, 751, 752, 753, 754, 755, 757, 759, 761, 765, 768, 771, 772, 774
775, 776, 777, 781, 782, 783, 785, 786, 787, 790, 799, 805, 813, 816, 817, 820
821, 822, 823, 824, 829, 832, 833, 834, 835, 837, 839, 840, 844, 853, 876, 890
894, 896, 897, 898, 899, 900, 902, 904, 907, 910, 912, 914, 917, 918, 919, 921
** ... 132 like lines cut
*Nset, nset=bc-set-2, instance=Part-1-1
95, 96, 97, 98, 99, 100, 101, 102, 103, 104, 105, 106, 107, 108, 109, 110
111, 112, 113, 114, 115, 116, 117, 118, 119, 120, 121, 122, 123, 124, 125, 126
127, 128, 129, 130, 131, 132, 133, 134, 135, 136, 137, 138, 139, 140, 141, 142
143, 144, 145, 146, 147, 148, 149, 150, 151, 152, 153, 154, 155, 156, 157, 158
159, 160, 161, 162, 163, 164, 165, 166, 167, 168, 169, 170, 171, 172, 173, 174
175, 176, 177, 178, 179, 180, 181, 182, 183, 184, 185, 186, 187, 188, 194, 195
196, 293, 294, 295, 296, 297, 298, 299, 300, 301, 302, 303, 304, 305, 306, 307
308, 309, 310, 311, 312, 313, 314, 315, 316, 317, 318, 319, 320, 321, 322, 323
324, 325, 326, 327, 328, 329, 330, 331, 332, 333, 334, 335, 336, 337, 338, 339
340, 341, 342, 343, 344, 345, 346, 347, 348, 349, 350, 351, 352, 353, 354, 355
356, 357, 358, 359, 360, 361, 362, 363, 364, 365, 366, 367, 368, 369, 370, 371
372, 373, 374, 375, 376, 377, 378, 379, 380, 381, 382, 383, 384, 385, 386, 392
393, 394, 879, 880, 881, 882, 883, 884, 885, 886, 887, 888, 889, 890, 891, 892
893, 894, 895, 896, 897, 898, 899, 900, 901, 902, 903, 904, 905, 906, 907, 908
909, 910, 911, 912, 913, 914, 915, 916, 917, 918, 919, 920, 921, 922, 923, 924
925, 926, 927, 928, 929, 930, 931, 932, 933, 934, 935, 936, 937, 938, 939, 940
941, 942, 943, 944, 945, 946, 947, 948, 949, 950, 951, 952, 953, 954, 955, 956
957, 958, 959, 960, 961, 962, 963, 964, 965, 966, 967, 968, 969, 970, 971, 972
973, 974, 975, 976, 977, 978, 979, 980, 981, 982, 983, 984, 985, 986, 987, 988
989, 990, 991, 992, 993, 994, 995, 996, 997, 998, 999, 1000, 1001, 1002, 1003, 1004
** ... 137 like lines cut
*Elset, elset=bc-set-2, instance=Part-1-1
41, 47, 54, 58, 66, 67, 68, 70, 77, 78, 80, 81, 82, 83, 85, 87
90, 94, 101, 124, 126, 127, 139, 142, 143, 144, 145, 146, 147, 148, 150, 154
156, 161, 163, 164, 165, 166, 172, 176, 177, 181, 186, 187, 188, 192, 196, 200
201, 206, 208, 209, 212, 221, 236, 238, 239, 241, 243, 244, 245, 247, 249, 250
251, 253, 255, 256, 257, 261, 262, 264, 269, 272, 282, 289, 295, 302, 303, 307
312, 315, 317, 318, 322, 324, 325, 327, 335, 345, 350, 353, 355, 357, 359, 363
372, 375, 376, 379, 381, 382, 385, 386, 391, 395, 396, 397, 398, 399, 405, 407
417, 420, 421, 422, 423, 430, 431, 435, 436, 443, 447, 451, 452, 453, 454, 455
456, 460, 463, 464, 465, 466, 467, 468, 473, 475, 476, 478, 484, 490, 494, 498
500, 501, 503, 505, 507, 508, 511, 516, 518, 522, 525, 527, 538, 539, 540, 542
546, 552, 556, 558, 562, 563, 564, 565, 567, 571, 574, 576, 584, 585, 598, 606
610, 612, 617, 618, 634, 641, 645, 648, 650, 653, 659, 663, 666, 667, 669, 673
676, 688, 692, 694, 697, 698, 699, 700, 702, 706, 707, 708, 726, 728, 730, 733
734, 735, 738, 739, 741, 744, 756, 763, 766, 767, 769, 784, 788, 789, 791, 792
794, 796, 800, 803, 807, 809, 811, 812, 819, 825, 827, 828, 830, 831, 836, 842
847, 849, 854, 856, 858, 861, 862, 864, 866, 867, 868, 871, 872, 873, 874, 875
877, 878, 883, 884, 885, 886, 891, 892, 893, 901, 913, 915, 931, 934, 944, 945
947, 952, 955, 956, 968, 970, 973, 975, 977, 979, 980, 984, 987, 998, 1001, 1008
1011, 1012, 1014, 1017, 1029, 1037, 1039, 1040, 1043, 1044, 1054, 1060, 1061, 1062, 1063, 1064
1071, 1073, 1074, 1075, 1077, 1081, 1082, 1083, 1089, 1094, 1101, 1116, 1124, 1129, 1134, 1136
** ... 133 like lines cut
*End Assembly
**
** ELEMENT CONTROLS
**
*Section Controls, name=EC-1, hourglass=ENHANCED
1., 1., 1.
**
** MATERIALS
**
*Material, name=Material-1
*Hyperelastic, neo hooke
0.001724, 60
** ----------------------------------------------------------------
**
** STEP: Step-1
**
*Step, name=Step-1, nlgeom=YES
*Static
1., 1., 1e-05, 1.
**
** BOUNDARY CONDITIONS
**
** Name: BC-1 Type: Displacement/Rotation
*Boundary
bc-set-1, 1, 1, 3
bc-set-1, 2, 6
** Name: BC-2 Type: Symmetry/Antisymmetry/Encastre
*Boundary
bc-set-2, ENCASTRE
**
** OUTPUT REQUESTS
**
*Restart, write, frequency=0
**
** FIELD OUTPUT: F-Output-1
**
*Output, field, variable=PRESELECT
**
** HISTORY OUTPUT: H-Output-1
**
*Output, history, variable=PRESELECT
*NODE PRINT
U
*EL PRINT, position = centroidal
DG
*EL PRINT, elset = bc-set-1, position = centroidal
S12
*EL PRINT, elset = bc-set-2, position = centroidal
S12
*End Step