*Heading
** Job name: sq-8mm_sin-per-2_sin-amp-0.25mm Model name: Model-1
** Generated by: Abaqus/CAE 2021
*Preprint, echo=NO, model=NO, history=NO, contact=NO
**
** PARTS
**
*Part, name=Part-1
*End Part
**
**
** ASSEMBLY
**
*Assembly, name=Assembly
**
*Instance, name=Part-1-1, part=Part-1
*Node
1, -20, 4, 0
2, -19.5833, 3.9674, 0
3, -19.1667, 3.9353, 0
4, -18.75, 3.9043, 0
5, -18.3333, 3.875, 0
6, -17.9167, 3.8478, 0
7, -17.5, 3.8232, 0
8, -17.0833, 3.8017, 0
9, -16.6667, 3.7835, 0
10, -16.25, 3.769, 0
11, -15.8333, 3.7585, 0
12, -15.4167, 3.7521, 0
13, -15, 3.75, 0
14, -14.5833, 3.7521, 0
15, -14.1667, 3.7585, 0
16, -13.75, 3.769, 0
17, -13.3333, 3.7835, 0
18, -12.9167, 3.8017, 0
19, -12.5, 3.8232, 0
20, -12.0833, 3.8478, 0
** ... 2588 like lines cut
*Element, type=C3D4H
1, 2069, 2068, 1447, 2053
2, 1815, 1564, 1389, 1573
3, 1815, 1573, 1389, 1826
4, 1815, 1586, 1577, 1564
5, 2268, 1263, 1268, 1810
6, 1822, 1811, 471, 472
7, 1873, 1874, 1598, 1854
8, 2186, 807, 806, 811
9, 2202, 811, 810, 816
10, 2288, 2136, 1433, 2155
11, 1483, 51, 1981, 1529
12, 2514, 1871, 1588, 1854
13, 1808, 457, 451, 456
14, 1808, 1811, 457, 456
15, 1821, 456, 461, 1811
16, 2514, 1578, 1588, 1871
17, 1841, 1292, 1287, 1286
18, 1798, 1462, 1417, 1473
19, 2313, 1805, 1856, 1816
20, 1784, 1338, 1727, 1728
** ... 9985 like lines cut
*Nset, nset=Set-1, generate
1, 2608, 1
*Elset, elset=Set-1, generate
1, 10005, 1
** Section: Section-1
*Solid Section, elset=Set-1, controls=EC-1, material=Material-1
,
*End Instance
**
*Nset, nset=bc-set-1, instance=Part-1-1
1, 2, 3, 4, 5, 6, 7, 8, 9, 10, 11, 12, 13, 14, 15, 16
17, 18, 19, 20, 21, 22, 23, 24, 25, 26, 27, 28, 29, 30, 31, 32
33, 34, 35, 36, 37, 38, 39, 40, 41, 42, 43, 44, 45, 46, 47, 48
49, 50, 51, 52, 53, 54, 55, 56, 57, 58, 59, 60, 61, 62, 63, 64
65, 66, 67, 68, 69, 70, 71, 72, 73, 74, 75, 76, 77, 78, 79, 80
81, 82, 83, 84, 85, 86, 87, 88, 89, 90, 91, 92, 93, 94, 189, 190
191, 199, 200, 201, 202, 203, 204, 205, 206, 207, 208, 209, 210, 211, 212, 213
214, 215, 216, 217, 218, 219, 220, 221, 222, 223, 224, 225, 226, 227, 228, 229
230, 231, 232, 233, 234, 235, 236, 237, 238, 239, 240, 241, 242, 243, 244, 245
246, 247, 248, 249, 250, 251, 252, 253, 254, 255, 256, 257, 258, 259, 260, 261
262, 263, 264, 265, 266, 267, 268, 269, 270, 271, 272, 273, 274, 275, 276, 277
278, 279, 280, 281, 282, 283, 284, 285, 286, 287, 288, 289, 290, 291, 292, 387
388, 389, 409, 410, 411, 412, 413, 414, 415, 416, 417, 418, 419, 420, 421, 422
423, 424, 425, 426, 427, 428, 429, 430, 431, 432, 433, 434, 435, 436, 437, 438
439, 440, 441, 442, 443, 444, 445, 446, 447, 448, 449, 450, 451, 452, 453, 454
455, 456, 457, 458, 459, 460, 461, 462, 463, 464, 465, 466, 467, 468, 469, 470
471, 472, 473, 474, 475, 476, 477, 478, 479, 480, 481, 482, 483, 484, 485, 486
487, 488, 489, 490, 491, 492, 493, 494, 495, 496, 497, 498, 499, 500, 501, 502
503, 504, 505, 506, 507, 508, 509, 510, 511, 512, 513, 514, 515, 516, 517, 518
519, 520, 521, 522, 523, 524, 525, 526, 527, 528, 529, 530, 531, 532, 533, 534
** ... 23 like lines cut
*Elset, elset=bc-set-1, instance=Part-1-1
6, 8, 9, 11, 13, 14, 15, 34, 39, 40, 41, 42, 43, 44, 46, 47
50, 59, 60, 65, 78, 80, 81, 82, 86, 101, 102, 103, 106, 107, 108, 114
115, 116, 121, 141, 150, 151, 181, 184, 187, 190, 191, 192, 197, 198, 199, 200
203, 209, 211, 217, 220, 222, 227, 231, 239, 240, 241, 242, 243, 250, 257, 259
265, 267, 303, 318, 326, 331, 332, 341, 343, 344, 352, 354, 363, 366, 377, 381
382, 383, 384, 386, 387, 388, 389, 393, 398, 406, 408, 409, 410, 417, 419, 434
436, 441, 451, 452, 453, 454, 455, 460, 464, 470, 473, 474, 483, 484, 497, 498
499, 500, 503, 507, 512, 513, 514, 526, 537, 548, 556, 558, 559, 574, 577, 580
588, 594, 598, 599, 601, 604, 606, 607, 612, 619, 620, 626, 633, 634, 643, 667
671, 675, 677, 686, 706, 718, 720, 739, 741, 744, 745, 746, 747, 748, 760, 761
767, 768, 784, 790, 792, 799, 801, 807, 810, 818, 828, 830, 832, 842, 844, 854
855, 856, 872, 873, 875, 876, 879, 881, 882, 883, 884, 890, 899, 907, 912, 932
936, 939, 943, 958, 962, 967, 982, 983, 984, 986, 989, 991, 993, 1024, 1028, 1035
1036, 1039, 1041, 1043, 1046, 1049, 1051, 1052, 1055, 1056, 1057, 1071, 1077, 1082, 1084, 1085
1086, 1091, 1095, 1096, 1098, 1099, 1100, 1102, 1103, 1104, 1105, 1106, 1107, 1114, 1115, 1129
1130, 1131, 1133, 1134, 1135, 1136, 1142, 1143, 1144, 1147, 1150, 1161, 1163, 1165, 1166, 1168
1173, 1180, 1181, 1183, 1184, 1185, 1194, 1215, 1226, 1243, 1244, 1245, 1251, 1254, 1266, 1268
1269, 1274, 1279, 1283, 1296, 1301, 1303, 1327, 1331, 1332, 1340, 1342, 1369, 1370, 1371, 1372
1373, 1374, 1378, 1381, 1383, 1384, 1386, 1387, 1394, 1395, 1396, 1405, 1408, 1409, 1410, 1421
1422, 1425, 1433, 1441, 1446, 1447, 1452, 1455, 1456, 1460, 1478, 1480, 1486, 1493, 1498, 1512
** ... 131 like lines cut
*Nset, nset=bc-set-2, instance=Part-1-1
95, 96, 97, 98, 99, 100, 101, 102, 103, 104, 105, 106, 107, 108, 109, 110
111, 112, 113, 114, 115, 116, 117, 118, 119, 120, 121, 122, 123, 124, 125, 126
127, 128, 129, 130, 131, 132, 133, 134, 135, 136, 137, 138, 139, 140, 141, 142
143, 144, 145, 146, 147, 148, 149, 150, 151, 152, 153, 154, 155, 156, 157, 158
159, 160, 161, 162, 163, 164, 165, 166, 167, 168, 169, 170, 171, 172, 173, 174
175, 176, 177, 178, 179, 180, 181, 182, 183, 184, 185, 186, 187, 188, 194, 195
196, 293, 294, 295, 296, 297, 298, 299, 300, 301, 302, 303, 304, 305, 306, 307
308, 309, 310, 311, 312, 313, 314, 315, 316, 317, 318, 319, 320, 321, 322, 323
324, 325, 326, 327, 328, 329, 330, 331, 332, 333, 334, 335, 336, 337, 338, 339
340, 341, 342, 343, 344, 345, 346, 347, 348, 349, 350, 351, 352, 353, 354, 355
356, 357, 358, 359, 360, 361, 362, 363, 364, 365, 366, 367, 368, 369, 370, 371
372, 373, 374, 375, 376, 377, 378, 379, 380, 381, 382, 383, 384, 385, 386, 392
393, 394, 879, 880, 881, 882, 883, 884, 885, 886, 887, 888, 889, 890, 891, 892
893, 894, 895, 896, 897, 898, 899, 900, 901, 902, 903, 904, 905, 906, 907, 908
909, 910, 911, 912, 913, 914, 915, 916, 917, 918, 919, 920, 921, 922, 923, 924
925, 926, 927, 928, 929, 930, 931, 932, 933, 934, 935, 936, 937, 938, 939, 940
941, 942, 943, 944, 945, 946, 947, 948, 949, 950, 951, 952, 953, 954, 955, 956
957, 958, 959, 960, 961, 962, 963, 964, 965, 966, 967, 968, 969, 970, 971, 972
973, 974, 975, 976, 977, 978, 979, 980, 981, 982, 983, 984, 985, 986, 987, 988
989, 990, 991, 992, 993, 994, 995, 996, 997, 998, 999, 1000, 1001, 1002, 1003, 1004
** ... 23 like lines cut
*Elset, elset=bc-set-2, instance=Part-1-1
5, 17, 20, 21, 22, 29, 30, 31, 32, 33, 35, 38, 52, 53, 55, 57
64, 66, 68, 73, 75, 90, 91, 92, 95, 98, 100, 110, 111, 112, 113, 126
129, 130, 131, 132, 133, 134, 135, 137, 140, 142, 143, 144, 145, 146, 147, 148
149, 156, 158, 160, 161, 164, 165, 166, 167, 168, 169, 170, 171, 173, 174, 175
176, 177, 182, 183, 196, 218, 221, 225, 226, 228, 229, 230, 234, 244, 245, 246
247, 255, 256, 260, 269, 270, 272, 273, 275, 276, 281, 283, 284, 285, 286, 287
289, 291, 299, 304, 305, 306, 307, 308, 309, 313, 314, 315, 317, 319, 322, 324
328, 329, 334, 335, 336, 337, 338, 340, 348, 349, 350, 351, 356, 358, 361, 365
367, 368, 369, 370, 371, 372, 373, 374, 375, 376, 379, 380, 392, 397, 403, 414
415, 416, 418, 420, 421, 422, 423, 424, 426, 427, 428, 429, 430, 431, 432, 433
435, 443, 444, 445, 446, 447, 449, 450, 461, 462, 463, 465, 466, 468, 469, 471
472, 481, 482, 485, 487, 489, 490, 491, 492, 515, 517, 518, 519, 520, 521, 522
523, 529, 540, 541, 543, 544, 549, 550, 552, 554, 555, 562, 567, 568, 569, 572
573, 575, 576, 581, 582, 583, 584, 585, 586, 587, 589, 590, 591, 592, 593, 597
602, 608, 617, 623, 624, 628, 630, 631, 632, 635, 638, 641, 642, 644, 649, 651
652, 653, 665, 666, 669, 670, 673, 681, 692, 693, 695, 698, 715, 727, 732, 733
742, 769, 773, 775, 776, 777, 778, 779, 781, 782, 783, 785, 786, 788, 791, 793
794, 795, 800, 802, 803, 811, 812, 814, 817, 820, 822, 823, 825, 826, 827, 829
831, 835, 837, 838, 839, 840, 841, 845, 846, 847, 851, 852, 857, 860, 861, 862
863, 864, 865, 867, 868, 877, 898, 900, 903, 904, 905, 906, 911, 913, 915, 921
** ... 134 like lines cut
*End Assembly
**
** ELEMENT CONTROLS
**
*Section Controls, name=EC-1, hourglass=ENHANCED
1., 1., 1.
**
** MATERIALS
**
*Material, name=Material-1
*Hyperelastic, neo hooke
0.002, 300
** ----------------------------------------------------------------
**
** STEP: Step-1
**
*Step, name=Step-1, nlgeom=YES
*Static
1., 1., 1e-05, 1.
**
** BOUNDARY CONDITIONS
**
** Name: BC-1 Type: Displacement/Rotation
*Boundary
bc-set-1, 1, 1, 3
bc-set-1, 2, 6
** Name: BC-2 Type: Symmetry/Antisymmetry/Encastre
*Boundary
bc-set-2, ENCASTRE
**
** OUTPUT REQUESTS
**
*Restart, write, frequency=0
**
** FIELD OUTPUT: F-Output-1
**
*Output, field, variable=PRESELECT
**
** HISTORY OUTPUT: H-Output-1
**
*Output, history, variable=PRESELECT
*End Step
