*Heading
** Job name: sq-18mm_sin-per-10_sin-amp-6mm Model name: Model-1
** Generated by: Abaqus/CAE 2021
*Preprint, echo=NO, model=NO, history=NO, contact=NO
**
** PARTS
**
*Part, name=Part-1
*End Part
**
**
** ASSEMBLY
**
*Assembly, name=Assembly
**
*Instance, name=Part-1-1, part=Part-1
*Node
1, -20, 9, 0
2, -19.2982, 3.6465, 0
3, -18.5965, 4.1654, 0
4, -17.8947, 9.9876, 0
5, -17.193, 14.7264, 0
6, -16.4912, 13.1838, 0
7, -15.7895, 7.0518, 0
8, -15.0877, 3.0569, 0
9, -14.386, 5.5812, 0
10, -13.6842, 11.8557, 0
11, -12.9825, 14.9977, 0
12, -12.2807, 11.5607, 0
13, -11.5789, 5.3147, 0
14, -10.8772, 3.1113, 0
15, -10.1754, 7.3674, 0
16, -9.4737, 13.4143, 0
17, -8.7719, 14.6191, 0
18, -8.0702, 9.66, 0
19, -7.3684, 3.977, 0
20, -6.6667, 3.8038, 0
** ... 18879 like lines cut
*Element, type=C3D10H
1, 2829, 617, 1645, 2843, 3120, 3118, 3119, 3121, 3122, 3123
2, 2674, 3034, 2814, 2676, 3126, 3124, 3125, 3127, 3128, 3129
3, 1684, 1645, 1677, 645, 3132, 3130, 3131, 3133, 3134, 3135
4, 1701, 658, 659, 687, 3138, 3136, 3137, 3139, 3140, 3141
5, 2425, 1167, 2394, 2411, 3144, 3142, 3143, 3145, 3146, 3147
6, 688, 689, 1697, 1725, 3150, 3148, 3149, 3151, 3152, 3153
7, 2425, 1168, 2394, 1167, 3155, 3154, 3143, 3144, 3156, 3142
8, 2460, 2494, 1214, 1213, 3159, 3157, 3158, 3160, 3161, 3162
9, 2460, 2458, 2494, 1213, 3164, 3163, 3159, 3160, 3165, 3161
10, 2223, 1392, 1069, 205, 3168, 3166, 3167, 3169, 3170, 3171
11, 1085, 2296, 2327, 2294, 3174, 3172, 3173, 3175, 3176, 3177
12, 409, 408, 2118, 2156, 3180, 3178, 3179, 3181, 3182, 3183
13, 1027, 2183, 2184, 1006, 3186, 3184, 3185, 3187, 3188, 3189
14, 199, 196, 2213, 373, 3192, 3190, 3191, 3193, 3194, 3195
15, 432, 2220, 205, 2223, 3198, 3196, 3197, 3199, 3200, 3169
16, 2682, 3044, 3057, 2677, 3203, 3201, 3202, 3204, 3205, 3206
17, 2700, 1241, 2903, 2889, 3209, 3207, 3208, 3210, 3211, 3212
18, 802, 788, 1867, 1896, 3215, 3213, 3214, 3216, 3217, 3218
19, 2682, 3057, 3072, 2677, 3202, 3219, 3220, 3204, 3206, 3221
20, 2677, 2845, 3091, 3055, 3224, 3222, 3223, 3225, 3226, 3227
** ... 9981 like lines cut
*Nset, nset=Set-1, generate
1, 18899, 1
*Elset, elset=Set-1, generate
1, 10001, 1
** Section: Section-1
*Solid Section, elset=Set-1, controls=EC-1, material=Material-1
,
*End Instance
**
*Nset, nset=bc-set-1, instance=Part-1-1
1, 2, 3, 4, 5, 6, 7, 8, 9, 10, 11, 12, 13, 14, 15, 16
17, 18, 19, 20, 21, 22, 23, 24, 25, 26, 27, 28, 29, 30, 31, 32
33, 34, 35, 36, 37, 38, 39, 40, 41, 42, 43, 44, 45, 46, 47, 48
49, 50, 51, 52, 53, 54, 55, 56, 57, 58, 121, 122, 123, 124, 125, 126
127, 128, 129, 130, 131, 132, 133, 134, 135, 136, 137, 138, 139, 140, 141, 142
143, 144, 145, 146, 147, 148, 149, 150, 151, 152, 153, 154, 155, 156, 157, 158
159, 160, 161, 162, 163, 164, 165, 166, 167, 168, 169, 170, 171, 172, 173, 174
175, 176, 177, 178, 257, 258, 269, 270, 284, 285, 286, 293, 310, 311, 316, 317
326, 327, 329, 339, 340, 345, 349, 350, 385, 386, 397, 398, 399, 414, 415, 423
425, 426, 428, 429, 437, 438, 451, 457, 458, 460, 471, 472, 481, 482, 483, 484
485, 486, 487, 488, 489, 490, 491, 492, 493, 494, 495, 496, 497, 498, 499, 500
501, 502, 503, 504, 505, 506, 507, 508, 509, 510, 511, 512, 513, 514, 515, 516
517, 518, 519, 520, 521, 522, 523, 524, 525, 526, 527, 528, 529, 530, 531, 532
533, 534, 535, 536, 537, 538, 539, 540, 541, 542, 543, 544, 545, 546, 547, 548
549, 550, 551, 552, 553, 554, 555, 556, 557, 558, 559, 560, 561, 562, 563, 564
565, 566, 567, 568, 569, 570, 571, 572, 573, 574, 575, 576, 577, 578, 579, 580
581, 582, 583, 584, 585, 586, 587, 588, 589, 590, 591, 592, 593, 594, 595, 596
597, 598, 599, 600, 601, 602, 603, 604, 605, 606, 607, 608, 609, 610, 611, 612
613, 614, 615, 616, 617, 618, 619, 620, 621, 622, 623, 624, 625, 626, 627, 628
629, 630, 631, 632, 633, 634, 635, 636, 637, 638, 639, 640, 641, 642, 643, 644
** ... 120 like lines cut
*Elset, elset=bc-set-1, instance=Part-1-1
1, 3, 4, 6, 18, 30, 33, 34, 41, 42, 43, 44, 46, 51, 53, 61
64, 65, 66, 67, 68, 74, 75, 76, 77, 93, 94, 95, 97, 105, 107, 108
121, 123, 129, 131, 134, 141, 143, 145, 150, 152, 153, 155, 161, 162, 163, 168
172, 177, 179, 180, 183, 185, 186, 189, 190, 191, 192, 196, 201, 203, 205, 206
209, 211, 215, 224, 226, 238, 240, 242, 243, 246, 248, 250, 251, 253, 256, 258
259, 260, 261, 262, 264, 280, 282, 286, 287, 294, 300, 309, 312, 316, 318, 319
322, 323, 324, 331, 332, 334, 345, 346, 353, 361, 362, 369, 376, 377, 380, 381
382, 384, 387, 388, 392, 394, 395, 398, 399, 400, 403, 404, 406, 407, 408, 410
413, 414, 416, 417, 419, 422, 423, 424, 425, 427, 429, 430, 432, 433, 434, 435
436, 437, 438, 439, 444, 446, 447, 450, 451, 453, 454, 457, 460, 462, 463, 466
468, 475, 476, 483, 484, 485, 486, 503, 509, 512, 513, 518, 519, 520, 523, 526
529, 530, 532, 535, 536, 538, 541, 542, 543, 544, 548, 550, 552, 553, 554, 555
557, 559, 562, 565, 567, 569, 570, 571, 574, 575, 576, 577, 586, 589, 596, 599
600, 601, 602, 603, 605, 606, 609, 612, 616, 618, 619, 621, 622, 623, 624, 625
629, 632, 639, 642, 656, 658, 659, 660, 661, 664, 666, 667, 668, 669, 678, 682
684, 689, 690, 691, 701, 702, 704, 705, 706, 707, 711, 712, 713, 714, 716, 719
727, 729, 733, 740, 749, 750, 752, 755, 757, 758, 759, 760, 765, 766, 767, 768
769, 775, 788, 789, 790, 791, 792, 793, 795, 803, 815, 820, 822, 826, 827, 829
831, 833, 834, 839, 849, 850, 851, 853, 854, 856, 857, 858, 859, 860, 861, 866
869, 870, 871, 872, 873, 875, 876, 879, 880, 886, 888, 890, 897, 900, 906, 915
** ... 223 like lines cut
*Nset, nset=bc-set-2, instance=Part-1-1
59, 60, 61, 62, 63, 64, 65, 66, 67, 68, 69, 70, 71, 72, 73, 74
75, 76, 77, 78, 79, 80, 81, 82, 83, 84, 85, 86, 87, 88, 89, 90
91, 92, 93, 94, 95, 96, 97, 98, 99, 100, 101, 102, 103, 104, 105, 106
107, 108, 109, 110, 111, 112, 113, 114, 115, 116, 179, 180, 181, 182, 183, 184
185, 186, 187, 188, 189, 190, 191, 192, 193, 194, 195, 196, 197, 198, 199, 200
201, 202, 203, 204, 205, 206, 207, 208, 209, 210, 211, 212, 213, 214, 215, 216
217, 218, 219, 220, 221, 222, 223, 224, 225, 226, 227, 228, 229, 230, 231, 232
233, 234, 235, 236, 271, 272, 276, 277, 278, 290, 291, 302, 306, 307, 308, 309
320, 321, 330, 334, 335, 337, 351, 352, 379, 380, 393, 394, 402, 403, 404, 409
430, 431, 439, 440, 446, 448, 449, 453, 454, 464, 468, 469, 887, 888, 889, 890
891, 892, 893, 894, 895, 896, 897, 898, 899, 900, 901, 902, 903, 904, 905, 906
907, 908, 909, 910, 911, 912, 913, 914, 915, 916, 917, 918, 919, 920, 921, 922
923, 924, 925, 926, 927, 928, 929, 930, 931, 932, 933, 934, 935, 936, 937, 938
939, 940, 941, 942, 943, 944, 945, 946, 947, 948, 949, 950, 951, 952, 953, 954
955, 956, 957, 958, 959, 960, 961, 962, 963, 964, 965, 966, 967, 968, 969, 970
971, 972, 973, 974, 975, 976, 977, 978, 979, 980, 981, 982, 983, 984, 985, 986
987, 988, 989, 990, 991, 992, 993, 994, 995, 996, 997, 998, 999, 1000, 1001, 1002
1003, 1004, 1005, 1006, 1007, 1008, 1009, 1010, 1011, 1012, 1013, 1014, 1015, 1016, 1017, 1018
1019, 1020, 1021, 1022, 1023, 1024, 1025, 1026, 1027, 1028, 1029, 1030, 1031, 1032, 1033, 1034
1035, 1036, 1037, 1038, 1039, 1040, 1041, 1042, 1043, 1044, 1045, 1046, 1047, 1048, 1049, 1050
** ... 121 like lines cut
*Elset, elset=bc-set-2, instance=Part-1-1
5, 7, 8, 9, 10, 11, 12, 13, 14, 15, 17, 23, 25, 26, 27, 37
38, 39, 40, 56, 58, 62, 63, 71, 78, 81, 82, 83, 84, 85, 86, 87
88, 89, 90, 91, 92, 98, 100, 101, 102, 103, 106, 109, 110, 111, 112, 113
114, 115, 116, 117, 118, 119, 120, 130, 132, 133, 135, 136, 137, 138, 139, 140
142, 144, 147, 158, 159, 166, 167, 169, 170, 173, 188, 195, 197, 198, 199, 200
207, 212, 213, 214, 216, 217, 218, 219, 220, 221, 222, 225, 228, 229, 230, 231
233, 234, 235, 236, 239, 244, 249, 252, 263, 265, 266, 267, 269, 270, 271, 279
281, 285, 289, 295, 298, 299, 302, 303, 304, 305, 306, 307, 308, 311, 320, 325
326, 327, 328, 329, 330, 333, 335, 336, 337, 338, 342, 347, 348, 350, 357, 358
359, 365, 367, 370, 372, 378, 379, 386, 389, 390, 391, 393, 397, 409, 412, 418
420, 421, 426, 431, 440, 448, 452, 458, 459, 461, 464, 465, 467, 469, 470, 473
474, 477, 481, 487, 491, 492, 495, 499, 500, 501, 502, 504, 507, 511, 516, 522
524, 527, 528, 531, 534, 540, 545, 546, 547, 549, 558, 561, 564, 566, 578, 579
580, 581, 582, 583, 584, 585, 588, 590, 593, 597, 598, 604, 608, 610, 611, 613
615, 617, 626, 627, 628, 630, 633, 635, 636, 637, 638, 641, 643, 647, 648, 649
650, 651, 652, 653, 654, 655, 657, 662, 663, 665, 671, 672, 673, 674, 675, 676
677, 679, 680, 681, 683, 686, 687, 688, 692, 695, 698, 700, 703, 709, 710, 717
718, 720, 721, 722, 724, 725, 726, 728, 730, 732, 734, 735, 736, 737, 738, 739
741, 742, 743, 744, 745, 751, 753, 756, 761, 762, 763, 770, 771, 772, 773, 774
776, 777, 779, 782, 783, 785, 786, 787, 797, 801, 802, 804, 805, 806, 807, 814
** ... 225 like lines cut
*End Assembly
**
** ELEMENT CONTROLS
**
*Section Controls, name=EC-1, hourglass=ENHANCED
1., 1., 1.
**
** MATERIALS
**
*Material, name=Material-1
*Hyperelastic, n=3, ogden
0.4017, 1.3, 0.00295, 5, 0.00981, -2, 0, 0
0,
** ----------------------------------------------------------------
**
** STEP: Step-1
**
*Step, name=Step-1, nlgeom=YES
*Static
1., 1., 1e-05, 1.
**
** BOUNDARY CONDITIONS
**
** Name: BC-1 Type: Displacement/Rotation
*Boundary
bc-set-1, 1, 1, 3
bc-set-1, 2, 6
** Name: BC-2 Type: Symmetry/Antisymmetry/Encastre
*Boundary
bc-set-2, ENCASTRE
**
** OUTPUT REQUESTS
**
*Restart, write, frequency=0
**
** FIELD OUTPUT: F-Output-1
**
*Output, field, variable=PRESELECT
**
** HISTORY OUTPUT: H-Output-1
**
*Output, history, variable=PRESELECT
*End Step
