1

   Abaqus 2021                                  Date 21-Jun-2023   Time 15:11:08
   For use by UNIVERSITY OF MICHIGAN under license from Dassault Systemes or its subsidiary.



                         The Abaqus Software is a product of:

                           Dassault Systemes SIMULIA Corp.
                           1301 Atwood Avenue, Suite 101W
                              Johnston, RI 02919, USA
 


                   The Abaqus Software is available only under license
                   from Dassault Systemes or its subsidiary and may be
                   used or reproduced only in accordance with the terms
                   of such license.
 
                          On machine ME-ESTRADALAB04 
                          you are authorized to run
                          Abaqus/Standard until 31-Jul-2024

                          Your site id is: 200000000004058 


 
                    For assistance or any other information you may
                    obtain contact information for your local office
                    from the world wide web at:

                      http://www.3ds.com/products/simulia/locations/

 
                * * * * * * * * * * * * * * * * * * * * * * * * * * * * * * 
                *                                                         * 
                *                   *****************                     * 
                *                   *  N O T I C E  *                     * 
                *                   *****************                     * 
                *                                                         * 
                *                                                         * 
                *                       Abaqus 2021                       * 
                *                                                         * 
                *          BUILD ID: 2020_03_06-09.50.37 167380           * 
                *                                                         * 
                *                                                         * 
                *  Please make sure you are using                         * 
                *  release Abaqus 2021 manuals                            * 
                *  plus the notes accompanying this release.              * 
                *                                                         * 
                *                                                         * 
                *                                                         * 
                *                                                         * 
                *                                                         * 
                *   This program may not be used for commercial purposes  * 
                *           without payment of a commercial fee.          * 
                *                                                         * 
                * * * * * * * * * * * * * * * * * * * * * * * * * * * * * * 


 



     PROCESSING PART, INSTANCE, AND ASSEMBLY INFORMATION
   *******************************************************


 ***WARNING: in keyword *ELSET, file 
             "sq-8mm_sin-per-4_sin-amp-0.6mm_tet_test.inp", line 1714: One or 
             more data lines contain more than 16 items (counting those after 
             trailing commas).  The extra items are deleted.

     END PROCESSING PART, INSTANCE, AND ASSEMBLY INFORMATION
   ***********************************************************




     OPTIONS BEING PROCESSED
   ***************************


  *Heading
  *Node
  *Element, type=C3D10H
  *Nset, nset=ASSEMBLY_PART-1-1_SET-1
  *Elset, elset=ASSEMBLY_PART-1-1_SET-1
  *Nset, nset=ASSEMBLY_BC-SET-1
  *Nset, nset=ASSEMBLY_BC-SET-2
  *Elset, elset=ASSEMBLY_BC-SET-1
  *Elset, elset=ASSEMBLY_BC-SET-2
  *material, name=MATERIAL-1
  *hyperelastic, n=3, ogden
  *solidsection, elset=ASSEMBLY_PART-1-1_SET-1, controls=EC-1, material=MATERIAL-1
  *sectioncontrols, name=EC-1, hourglass=ENHANCED

 ***WARNING: THE PARAMETER HOURGLASS = ENHANCED ON THE SECTION CONTROLS OPTION 
             IS RELEVANT FOR THESE ELEMENTS: C3D8R, CAX4R, CGAX4R, CPEG4R, 
             CPE4R, CPS4R, M3D4R, S4R, SC8R AND THEIR HYBRID, THERMAL AND 
             PRESSURE COUNTERPARTS WHEREVER APPLICABLE. IT IS ALSO RELEVANT FOR 
             ALL TYPES OF MODIFIED TRIANGULAR AND TETRAHEDRAL ELEMENTS. THIS 
             WARNING CAN BE IGNORED IF THE FEATURE IS APPLIED TO THESE ELEMENT 
             TYPES ONLY.
  *solidsection, elset=ASSEMBLY_PART-1-1_SET-1, controls=EC-1, material=MATERIAL-1
  *boundary
  *boundary
  *boundary
  *boundary
  *output, field, variable=PRESELECT
  *output, history, variable=PRESELECT
  *output, field, variable=PRESELECT
  *output, history, variable=PRESELECT
  *output, field, variable=PRESELECT
  *output, history, variable=PRESELECT
  *Step, name=Step-1, nlgeom=YES
  *output, field, variable=PRESELECT
  *output, history, variable=PRESELECT
  *Step, name=Step-1, nlgeom=YES
  *Step, name=Step-1, nlgeom=YES
  *static
  *boundary
  *boundary
  *output, field, variable=PRESELECT
  *output, history, variable=PRESELECT
  *nodeprint
  *elprint, position=CENTROIDAL

 ***WARNING: OUTPUT REQUEST DG IS ONLY AVAILABLE FOR *HYPERELASTIC/FOAM AND 
             *USER MATERIAL.
  *elprint, elset=ASSEMBLY_BC-SET-1, position=CENTROIDAL
  *elprint, elset=ASSEMBLY_BC-SET-2, position=CENTROIDAL
  *elprint, position=CENTROIDAL
  *endstep
  *Step, name=Step-1, nlgeom=YES
  *static
  *boundary
  *boundary
  *endstep

 ***NOTE: Boundary conditions are specified on inactive dof of 245 nodes. The 
          nodes have been identified in node set WarnNodeBCInactiveDof.


                              E L E M E N T,   N O D E,   A N D   S U R F A C E   M A P S


**NOTE: This section may not include complete information about
        members of sets and surfaces. Use *PREPRINT, MODEL=YES 
        in order to get the set and surface members printed    
        under the following sections:                          
            - E L E M E N T   S E T S                          
            - N O D E   S E T S                                
            - S U R F A C E   D E F I N I T I O N S .          


Assembly name: ASSEMBLY
Number of instances: 1

ASSEMBLY LEVEL
  node sets:
    BC-SET-1:
      instance name: PART-1-1
      number of nodes: 245
      nodes: 
        1 2 3 4 9 10 11 12 13 14 15 16 17 18 19 20 21 22 23 24 25 26 27
        28 29 55 56 57 58 63 64 65 66 67 68 69 70 71 72 73 74 75 76 77
        78 79 80 81 82 83 109 110 111 112 117 118 119 120 121 122 123
        124 125 126 127 128 129 130 131 132 133 134 135 136 137 219 240
        241 242 262 266 267 277 279 281 285 289 290 291 292 293 356 369
        371 377 378 379 382 383 444 445 447 449 451 454 455 456 470 524
        538 551 554 563 564 595 596 599 600 601 602 603 625 630 646 647
        648 711 712 713 715 719 720 746 753 765 766 767 772 773 775 776
        778 779 783 788 795 799 800 803 807 808 810 811 812 814 818 819
        821 822 823 824 841 843 861 864 865 867 888 889 892 894 917 918
        920 921 922 923 927 945 949 955 957 958 961 968 991 992 1006
        1014 1019 1021 1023 1028 1030 1032 1033 1034 1039 1045 1052 1053
        1055 1060 1062 1066 1067 1076 1077 1079 1080 1081 1083 1084 1089
        1091 1092 1098 1099 1100 1103 1104 1109 1111 1113 1114 1115 1118
        1119 1120 1124 1125 1127 1128 1130 1131 1132 1134 1135 1136 1137
        1140 1141 1142 1143 1144

    BC-SET-2:
      instance name: PART-1-1
      number of nodes: 245
      nodes: 
        5 6 7 8 32 33 34 35 36 37 38 39 40 41 42 43 44 45 46 47 48 49 50
        51 52 59 60 61 62 86 87 88 89 90 91 92 93 94 95 96 97 98 99 100
        101 102 103 104 105 106 113 114 115 116 140 141 142 143 144 145
        146 147 148 149 150 151 152 153 154 155 156 157 158 159 160 221
        223 225 236 252 256 271 282 283 297 298 299 324 336 338 340 345
        347 349 366 372 373 388 407 410 411 414 419 421 422 432 436 437
        441 442 475 477 478 481 482 504 508 509 513 518 529 531 539 544
        547 548 571 578 581 610 615 638 639 640 651 652 653 657 659 665
        666 667 671 672 680 681 682 685 686 689 691 695 696 697 698 703
        707 709 721 722 723 730 738 739 740 745 756 758 760 764 801 828
        829 831 838 846 856 857 858 860 869 871 881 882 883 886 898 899
        900 902 907 908 909 912 930 931 932 933 935 936 944 946 947 951
        952 959 973 974 975 980 983 986 987 989 1002 1003 1012 1024 1027
        1029 1035 1036 1037 1038 1040 1041 1046 1051 1057 1059 1061 1063
        1069 1073 1074 1075 1078 1087 1093 1096 1101 1110 1112 1121 1133

  element sets:
    BC-SET-1:
      instance name: PART-1-1
      number of elements: 225
      elements: 
        1 3 5 9 10 12 15 16 21 29 32 34 35 39 49 50 51 52 54 55 61 62 63
        64 69 71 72 75 76 81 82 83 86 91 94 97 98 99 105 107 110 111 115
        117 118 119 137 139 140 147 150 153 155 158 161 162 163 166 168
        170 171 172 173 174 176 178 179 180 183 184 185 186 189 192 195
        198 199 202 203 207 209 211 212 215 219 224 225 226 227 229 233
        234 239 240 241 244 246 251 252 254 257 258 260 261 262 268 269
        271 272 274 276 277 285 287 292 294 295 299 304 308 313 314 315
        317 320 322 324 325 326 327 328 330 333 334 339 342 343 344 349
        350 353 354 356 357 358 361 363 368 369 370 371 374 378 386 387
        388 392 397 398 401 402 404 408 409 410 411 412 413 415 416 418
        422 423 425 426 429 431 432 433 438 441 442 444 445 447 448 449
        450 455 456 457 460 462 465 466 467 470 471 474 475 478 479 480
        483 485 487 488 489 490 493 496 497 503 504 507 508 510 513 514
        516 518 519 521 522 524

    BC-SET-2:
      instance name: PART-1-1
      number of elements: 228
      elements: 
        2 4 7 8 11 13 14 17 19 22 25 27 31 33 36 41 42 43 44 47 48 53 56
        57 58 59 66 67 70 73 74 78 79 80 88 89 90 92 93 95 100 101 102
        103 104 106 108 116 120 121 123 124 126 127 128 129 131 132 133
        134 135 136 138 141 142 143 145 146 148 149 151 152 154 156 157
        159 160 164 165 169 175 181 187 188 190 193 194 196 197 200 201
        205 206 208 210 213 214 216 217 218 221 222 223 228 230 231 232
        235 236 237 238 245 247 248 249 253 255 256 259 263 264 265 266
        267 270 273 279 280 282 283 284 286 288 289 290 291 293 298 300
        302 306 307 309 311 312 318 319 321 323 329 331 332 335 336 337
        338 341 345 346 348 351 352 360 362 364 367 372 373 375 376 379
        380 381 382 384 385 389 390 391 393 394 395 396 399 400 403 405
        406 407 414 417 419 421 424 427 434 437 439 440 443 446 451 453
        454 458 461 463 464 468 472 473 476 477 481 482 486 492 494 495
        499 500 502 505 511 512 517 520 523

  Surfaces:

INSTANCE LEVEL
  node sets:
    Instance name: PART-1-1
      node set name: SET-1
        number of nodes: 1145
        nodes: 
          1 2 3 4 5 6 7 8 9 10 11 12 13 14 15 16 17 18 19 20 21 22 23 24
          25 26 27 28 29 30 31 32 33 34 35 36 37 38 39 40 41 42 43 44 45
          46 47 48 49 50 51 52 53 54 55 56 57 58 59 60 61 62 63 64 65 66
          67 68 69 70 71 72 73 74 75 76 77 78 79 80 81 82 83 84 85 86 87
          88 89 90 91 92 93 94 95 96 97 98 99 100 101 102 103 104 105
          106 107 108 109 110 111 112 113 114 115 116 117 118 119 120
          121 122 123 124 125 126 127 128 129 130 131 132 133 134 135
          136 137 138 139 140 141 142 143 144 145 146 147 148 149 150
          151 152 153 154 155 156 157 158 159 160 161 162 163 164 165
          166 167 168 169 170 171 172 173 174 175 176 177 178 179 180
          181 182 183 184 185 186 187 188 189 190 191 192 193 194 195
          196 197 198 199 200 201 202 203 204 205 206 207 208 209 210
          211 212 213 214 215 216 217 218 219 220 221 222 223 224 225
          226 227 228 229 230 231 232 233 234 235 236 237 238 239 240
          241 242 243 244 245 246 247 248 249 250 251 252 253 254 255
          256 257 258 259 260 261 262 263 264 265 266 267 268 269 270
          271 272 273 274 275 276 277 278 279 280 281 282 283 284 285
          286 287 288 289 290 291 292 293 294 295 296 297 298 299 300
          301 302 303 304 305 306 307 308 309 310 311 312 313 314 315
          316 317 318 319 320 321 322 323 324 325 326 327 328 329 330
          331 332 333 334 335 336 337 338 339 340 341 342 343 344 345
          346 347 348 349 350 351 352 353 354 355 356 357 358 359 360
          361 362 363 364 365 366 367 368 369 370 371 372 373 374 375
          376 377 378 379 380 381 382 383 384 385 386 387 388 389 390
          391 392 393 394 395 396 397 398 399 400 401 402 403 404 405
          406 407 408 409 410 411 412 413 414 415 416 417 418 419 420
          421 422 423 424 425 426 427 428 429 430 431 432 433 434 435
          436 437 438 439 440 441 442 443 444 445 446 447 448 449 450
          451 452 453 454 455 456 457 458 459 460 461 462 463 464 465
          466 467 468 469 470 471 472 473 474 475 476 477 478 479 480
          481 482 483 484 485 486 487 488 489 490 491 492 493 494 495
          496 497 498 499 500 501 502 503 504 505 506 507 508 509 510
          511 512 513 514 515 516 517 518 519 520 521 522 523 524 525
          526 527 528 529 530 531 532 533 534 535 536 537 538 539 540
          541 542 543 544 545 546 547 548 549 550 551 552 553 554 555
          556 557 558 559 560 561 562 563 564 565 566 567 568 569 570
          571 572 573 574 575 576 577 578 579 580 581 582 583 584 585
          586 587 588 589 590 591 592 593 594 595 596 597 598 599 600
          601 602 603 604 605 606 607 608 609 610 611 612 613 614 615
          616 617 618 619 620 621 622 623 624 625 626 627 628 629 630
          631 632 633 634 635 636 637 638 639 640 641 642 643 644 645
          646 647 648 649 650 651 652 653 654 655 656 657 658 659 660
          661 662 663 664 665 666 667 668 669 670 671 672 673 674 675
          676 677 678 679 680 681 682 683 684 685 686 687 688 689 690
          691 692 693 694 695 696 697 698 699 700 701 702 703 704 705
          706 707 708 709 710 711 712 713 714 715 716 717 718 719 720
          721 722 723 724 725 726 727 728 729 730 731 732 733 734 735
          736 737 738 739 740 741 742 743 744 745 746 747 748 749 750
          751 752 753 754 755 756 757 758 759 760 761 762 763 764 765
          766 767 768 769 770 771 772 773 774 775 776 777 778 779 780
          781 782 783 784 785 786 787 788 789 790 791 792 793 794 795
          796 797 798 799 800 801 802 803 804 805 806 807 808 809 810
          811 812 813 814 815 816 817 818 819 820 821 822 823 824 825
          826 827 828 829 830 831 832 833 834 835 836 837 838 839 840
          841 842 843 844 845 846 847 848 849 850 851 852 853 854 855
          856 857 858 859 860 861 862 863 864 865 866 867 868 869 870
          871 872 873 874 875 876 877 878 879 880 881 882 883 884 885
          886 887 888 889 890 891 892 893 894 895 896 897 898 899 900
          901 902 903 904 905 906 907 908 909 910 911 912 913 914 915
          916 917 918 919 920 921 922 923 924 925 926 927 928 929 930
          931 932 933 934 935 936 937 938 939 940 941 942 943 944 945
          946 947 948 949 950 951 952 953 954 955 956 957 958 959 960
          961 962 963 964 965 966 967 968 969 970 971 972 973 974 975
          976 977 978 979 980 981 982 983 984 985 986 987 988 989 990
          991 992 993 994 995 996 997 998 999 1000 1001 1002 1003 1004
          1005 1006 1007 1008 1009 1010 1011 1012 1013 1014 1015 1016
          1017 1018 1019 1020 1021 1022 1023 1024 1025 1026 1027 1028
          1029 1030 1031 1032 1033 1034 1035 1036 1037 1038 1039 1040
          1041 1042 1043 1044 1045 1046 1047 1048 1049 1050 1051 1052
          1053 1054 1055 1056 1057 1058 1059 1060 1061 1062 1063 1064
          1065 1066 1067 1068 1069 1070 1071 1072 1073 1074 1075 1076
          1077 1078 1079 1080 1081 1082 1083 1084 1085 1086 1087 1088
          1089 1090 1091 1092 1093 1094 1095 1096 1097 1098 1099 1100
          1101 1102 1103 1104 1105 1106 1107 1108 1109 1110 1111 1112
          1113 1114 1115 1116 1117 1118 1119 1120 1121 1122 1123 1124
          1125 1126 1127 1128 1129 1130 1131 1132 1133 1134 1135 1136
          1137 1138 1139 1140 1141 1142 1143 1144 1145

  element sets:
    Instance name: PART-1-1
      element set name: SET-1
        number of elements: 524
        elements: 
          1 2 3 4 5 6 7 8 9 10 11 12 13 14 15 16 17 18 19 20 21 22 23 24
          25 26 27 28 29 30 31 32 33 34 35 36 37 38 39 40 41 42 43 44 45
          46 47 48 49 50 51 52 53 54 55 56 57 58 59 60 61 62 63 64 65 66
          67 68 69 70 71 72 73 74 75 76 77 78 79 80 81 82 83 84 85 86 87
          88 89 90 91 92 93 94 95 96 97 98 99 100 101 102 103 104 105
          106 107 108 109 110 111 112 113 114 115 116 117 118 119 120
          121 122 123 124 125 126 127 128 129 130 131 132 133 134 135
          136 137 138 139 140 141 142 143 144 145 146 147 148 149 150
          151 152 153 154 155 156 157 158 159 160 161 162 163 164 165
          166 167 168 169 170 171 172 173 174 175 176 177 178 179 180
          181 182 183 184 185 186 187 188 189 190 191 192 193 194 195
          196 197 198 199 200 201 202 203 204 205 206 207 208 209 210
          211 212 213 214 215 216 217 218 219 220 221 222 223 224 225
          226 227 228 229 230 231 232 233 234 235 236 237 238 239 240
          241 242 243 244 245 246 247 248 249 250 251 252 253 254 255
          256 257 258 259 260 261 262 263 264 265 266 267 268 269 270
          271 272 273 274 275 276 277 278 279 280 281 282 283 284 285
          286 287 288 289 290 291 292 293 294 295 296 297 298 299 300
          301 302 303 304 305 306 307 308 309 310 311 312 313 314 315
          316 317 318 319 320 321 322 323 324 325 326 327 328 329 330
          331 332 333 334 335 336 337 338 339 340 341 342 343 344 345
          346 347 348 349 350 351 352 353 354 355 356 357 358 359 360
          361 362 363 364 365 366 367 368 369 370 371 372 373 374 375
          376 377 378 379 380 381 382 383 384 385 386 387 388 389 390
          391 392 393 394 395 396 397 398 399 400 401 402 403 404 405
          406 407 408 409 410 411 412 413 414 415 416 417 418 419 420
          421 422 423 424 425 426 427 428 429 430 431 432 433 434 435
          436 437 438 439 440 441 442 443 444 445 446 447 448 449 450
          451 452 453 454 455 456 457 458 459 460 461 462 463 464 465
          466 467 468 469 470 471 472 473 474 475 476 477 478 479 480
          481 482 483 484 485 486 487 488 489 490 491 492 493 494 495
          496 497 498 499 500 501 502 503 504 505 506 507 508 509 510
          511 512 513 514 515 516 517 518 519 520 521 522 523 524

  Surfaces:

GLOBAL TO LOCAL NODE AND ELEMENT MAPS
  Global     Local      
  node       node       
  number     number     
                        Instance name                                   
   1          1         PART-1-1                                        
   2          2         PART-1-1                                        
   3          3         PART-1-1                                        
   4          4         PART-1-1                                        
   5          5         PART-1-1                                        
   6          6         PART-1-1                                        
   7          7         PART-1-1                                        
   8          8         PART-1-1                                        
   9          9         PART-1-1                                        
   10         10        PART-1-1                                        
   11         11        PART-1-1                                        
   12         12        PART-1-1                                        
   13         13        PART-1-1                                        
   14         14        PART-1-1                                        
   15         15        PART-1-1                                        
   16         16        PART-1-1                                        
   17         17        PART-1-1                                        
   18         18        PART-1-1                                        
   19         19        PART-1-1                                        
   20         20        PART-1-1                                        
   21         21        PART-1-1                                        
   22         22        PART-1-1                                        
   23         23        PART-1-1                                        
   24         24        PART-1-1                                        
   25         25        PART-1-1                                        
   26         26        PART-1-1                                        
   27         27        PART-1-1                                        
   28         28        PART-1-1                                        
   29         29        PART-1-1                                        
   30         30        PART-1-1                                        
   31         31        PART-1-1                                        
   32         32        PART-1-1                                        
   33         33        PART-1-1                                        
   34         34        PART-1-1                                        
   35         35        PART-1-1                                        
   36         36        PART-1-1                                        
   37         37        PART-1-1                                        
   38         38        PART-1-1                                        
   39         39        PART-1-1                                        
   40         40        PART-1-1                                        
   41         41        PART-1-1                                        
   42         42        PART-1-1                                        
   43         43        PART-1-1                                        
   44         44        PART-1-1                                        
   45         45        PART-1-1                                        
   46         46        PART-1-1                                        
   47         47        PART-1-1                                        
   48         48        PART-1-1                                        
   49         49        PART-1-1                                        
   50         50        PART-1-1                                        
   51         51        PART-1-1                                        
   52         52        PART-1-1                                        
   53         53        PART-1-1                                        
   54         54        PART-1-1                                        
   55         55        PART-1-1                                        
   56         56        PART-1-1                                        
   57         57        PART-1-1                                        
   58         58        PART-1-1                                        
   59         59        PART-1-1                                        
   60         60        PART-1-1                                        
   61         61        PART-1-1                                        
   62         62        PART-1-1                                        
   63         63        PART-1-1                                        
   64         64        PART-1-1                                        
   65         65        PART-1-1                                        
   66         66        PART-1-1                                        
   67         67        PART-1-1                                        
   68         68        PART-1-1                                        
   69         69        PART-1-1                                        
   70         70        PART-1-1                                        
   71         71        PART-1-1                                        
   72         72        PART-1-1                                        
   73         73        PART-1-1                                        
   74         74        PART-1-1                                        
   75         75        PART-1-1                                        
   76         76        PART-1-1                                        
   77         77        PART-1-1                                        
   78         78        PART-1-1                                        
   79         79        PART-1-1                                        
   80         80        PART-1-1                                        
   81         81        PART-1-1                                        
   82         82        PART-1-1                                        
   83         83        PART-1-1                                        
   84         84        PART-1-1                                        
   85         85        PART-1-1                                        
   86         86        PART-1-1                                        
   87         87        PART-1-1                                        
   88         88        PART-1-1                                        
   89         89        PART-1-1                                        
   90         90        PART-1-1                                        
   91         91        PART-1-1                                        
   92         92        PART-1-1                                        
   93         93        PART-1-1                                        
   94         94        PART-1-1                                        
   95         95        PART-1-1                                        
   96         96        PART-1-1                                        
   97         97        PART-1-1                                        
   98         98        PART-1-1                                        
   99         99        PART-1-1                                        
   100        100       PART-1-1                                        
   101        101       PART-1-1                                        
   102        102       PART-1-1                                        
   103        103       PART-1-1                                        
   104        104       PART-1-1                                        
   105        105       PART-1-1                                        
   106        106       PART-1-1                                        
   107        107       PART-1-1                                        
   108        108       PART-1-1                                        
   109        109       PART-1-1                                        
   110        110       PART-1-1                                        
   111        111       PART-1-1                                        
   112        112       PART-1-1                                        
   113        113       PART-1-1                                        
   114        114       PART-1-1                                        
   115        115       PART-1-1                                        
   116        116       PART-1-1                                        
   117        117       PART-1-1                                        
   118        118       PART-1-1                                        
   119        119       PART-1-1                                        
   120        120       PART-1-1                                        
   121        121       PART-1-1                                        
   122        122       PART-1-1                                        
   123        123       PART-1-1                                        
   124        124       PART-1-1                                        
   125        125       PART-1-1                                        
   126        126       PART-1-1                                        
   127        127       PART-1-1                                        
   128        128       PART-1-1                                        
   129        129       PART-1-1                                        
   130        130       PART-1-1                                        
   131        131       PART-1-1                                        
   132        132       PART-1-1                                        
   133        133       PART-1-1                                        
   134        134       PART-1-1                                        
   135        135       PART-1-1                                        
   136        136       PART-1-1                                        
   137        137       PART-1-1                                        
   138        138       PART-1-1                                        
   139        139       PART-1-1                                        
   140        140       PART-1-1                                        
   141        141       PART-1-1                                        
   142        142       PART-1-1                                        
   143        143       PART-1-1                                        
   144        144       PART-1-1                                        
   145        145       PART-1-1                                        
   146        146       PART-1-1                                        
   147        147       PART-1-1                                        
   148        148       PART-1-1                                        
   149        149       PART-1-1                                        
   150        150       PART-1-1                                        
   151        151       PART-1-1                                        
   152        152       PART-1-1                                        
   153        153       PART-1-1                                        
   154        154       PART-1-1                                        
   155        155       PART-1-1                                        
   156        156       PART-1-1                                        
   157        157       PART-1-1                                        
   158        158       PART-1-1                                        
   159        159       PART-1-1                                        
   160        160       PART-1-1                                        
   161        161       PART-1-1                                        
   162        162       PART-1-1                                        
   163        163       PART-1-1                                        
   164        164       PART-1-1                                        
   165        165       PART-1-1                                        
   166        166       PART-1-1                                        
   167        167       PART-1-1                                        
   168        168       PART-1-1                                        
   169        169       PART-1-1                                        
   170        170       PART-1-1                                        
   171        171       PART-1-1                                        
   172        172       PART-1-1                                        
   173        173       PART-1-1                                        
   174        174       PART-1-1                                        
   175        175       PART-1-1                                        
   176        176       PART-1-1                                        
   177        177       PART-1-1                                        
   178        178       PART-1-1                                        
   179        179       PART-1-1                                        
   180        180       PART-1-1                                        
   181        181       PART-1-1                                        
   182        182       PART-1-1                                        
   183        183       PART-1-1                                        
   184        184       PART-1-1                                        
   185        185       PART-1-1                                        
   186        186       PART-1-1                                        
   187        187       PART-1-1                                        
   188        188       PART-1-1                                        
   189        189       PART-1-1                                        
   190        190       PART-1-1                                        
   191        191       PART-1-1                                        
   192        192       PART-1-1                                        
   193        193       PART-1-1                                        
   194        194       PART-1-1                                        
   195        195       PART-1-1                                        
   196        196       PART-1-1                                        
   197        197       PART-1-1                                        
   198        198       PART-1-1                                        
   199        199       PART-1-1                                        
   200        200       PART-1-1                                        
   201        201       PART-1-1                                        
   202        202       PART-1-1                                        
   203        203       PART-1-1                                        
   204        204       PART-1-1                                        
   205        205       PART-1-1                                        
   206        206       PART-1-1                                        
   207        207       PART-1-1                                        
   208        208       PART-1-1                                        
   209        209       PART-1-1                                        
   210        210       PART-1-1                                        
   211        211       PART-1-1                                        
   212        212       PART-1-1                                        
   213        213       PART-1-1                                        
   214        214       PART-1-1                                        
   215        215       PART-1-1                                        
   216        216       PART-1-1                                        
   217        217       PART-1-1                                        
   218        218       PART-1-1                                        
   219        219       PART-1-1                                        
   220        220       PART-1-1                                        
   221        221       PART-1-1                                        
   222        222       PART-1-1                                        
   223        223       PART-1-1                                        
   224        224       PART-1-1                                        
   225        225       PART-1-1                                        
   226        226       PART-1-1                                        
   227        227       PART-1-1                                        
   228        228       PART-1-1                                        
   229        229       PART-1-1                                        
   230        230       PART-1-1                                        
   231        231       PART-1-1                                        
   232        232       PART-1-1                                        
   233        233       PART-1-1                                        
   234        234       PART-1-1                                        
   235        235       PART-1-1                                        
   236        236       PART-1-1                                        
   237        237       PART-1-1                                        
   238        238       PART-1-1                                        
   239        239       PART-1-1                                        
   240        240       PART-1-1                                        
   241        241       PART-1-1                                        
   242        242       PART-1-1                                        
   243        243       PART-1-1                                        
   244        244       PART-1-1                                        
   245        245       PART-1-1                                        
   246        246       PART-1-1                                        
   247        247       PART-1-1                                        
   248        248       PART-1-1                                        
   249        249       PART-1-1                                        
   250        250       PART-1-1                                        
   251        251       PART-1-1                                        
   252        252       PART-1-1                                        
   253        253       PART-1-1                                        
   254        254       PART-1-1                                        
   255        255       PART-1-1                                        
   256        256       PART-1-1                                        
   257        257       PART-1-1                                        
   258        258       PART-1-1                                        
   259        259       PART-1-1                                        
   260        260       PART-1-1                                        
   261        261       PART-1-1                                        
   262        262       PART-1-1                                        
   263        263       PART-1-1                                        
   264        264       PART-1-1                                        
   265        265       PART-1-1                                        
   266        266       PART-1-1                                        
   267        267       PART-1-1                                        
   268        268       PART-1-1                                        
   269        269       PART-1-1                                        
   270        270       PART-1-1                                        
   271        271       PART-1-1                                        
   272        272       PART-1-1                                        
   273        273       PART-1-1                                        
   274        274       PART-1-1                                        
   275        275       PART-1-1                                        
   276        276       PART-1-1                                        
   277        277       PART-1-1                                        
   278        278       PART-1-1                                        
   279        279       PART-1-1                                        
   280        280       PART-1-1                                        
   281        281       PART-1-1                                        
   282        282       PART-1-1                                        
   283        283       PART-1-1                                        
   284        284       PART-1-1                                        
   285        285       PART-1-1                                        
   286        286       PART-1-1                                        
   287        287       PART-1-1                                        
   288        288       PART-1-1                                        
   289        289       PART-1-1                                        
   290        290       PART-1-1                                        
   291        291       PART-1-1                                        
   292        292       PART-1-1                                        
   293        293       PART-1-1                                        
   294        294       PART-1-1                                        
   295        295       PART-1-1                                        
   296        296       PART-1-1                                        
   297        297       PART-1-1                                        
   298        298       PART-1-1                                        
   299        299       PART-1-1                                        
   300        300       PART-1-1                                        
   301        301       PART-1-1                                        
   302        302       PART-1-1                                        
   303        303       PART-1-1                                        
   304        304       PART-1-1                                        
   305        305       PART-1-1                                        
   306        306       PART-1-1                                        
   307        307       PART-1-1                                        
   308        308       PART-1-1                                        
   309        309       PART-1-1                                        
   310        310       PART-1-1                                        
   311        311       PART-1-1                                        
   312        312       PART-1-1                                        
   313        313       PART-1-1                                        
   314        314       PART-1-1                                        
   315        315       PART-1-1                                        
   316        316       PART-1-1                                        
   317        317       PART-1-1                                        
   318        318       PART-1-1                                        
   319        319       PART-1-1                                        
   320        320       PART-1-1                                        
   321        321       PART-1-1                                        
   322        322       PART-1-1                                        
   323        323       PART-1-1                                        
   324        324       PART-1-1                                        
   325        325       PART-1-1                                        
   326        326       PART-1-1                                        
   327        327       PART-1-1                                        
   328        328       PART-1-1                                        
   329        329       PART-1-1                                        
   330        330       PART-1-1                                        
   331        331       PART-1-1                                        
   332        332       PART-1-1                                        
   333        333       PART-1-1                                        
   334        334       PART-1-1                                        
   335        335       PART-1-1                                        
   336        336       PART-1-1                                        
   337        337       PART-1-1                                        
   338        338       PART-1-1                                        
   339        339       PART-1-1                                        
   340        340       PART-1-1                                        
   341        341       PART-1-1                                        
   342        342       PART-1-1                                        
   343        343       PART-1-1                                        
   344        344       PART-1-1                                        
   345        345       PART-1-1                                        
   346        346       PART-1-1                                        
   347        347       PART-1-1                                        
   348        348       PART-1-1                                        
   349        349       PART-1-1                                        
   350        350       PART-1-1                                        
   351        351       PART-1-1                                        
   352        352       PART-1-1                                        
   353        353       PART-1-1                                        
   354        354       PART-1-1                                        
   355        355       PART-1-1                                        
   356        356       PART-1-1                                        
   357        357       PART-1-1                                        
   358        358       PART-1-1                                        
   359        359       PART-1-1                                        
   360        360       PART-1-1                                        
   361        361       PART-1-1                                        
   362        362       PART-1-1                                        
   363        363       PART-1-1                                        
   364        364       PART-1-1                                        
   365        365       PART-1-1                                        
   366        366       PART-1-1                                        
   367        367       PART-1-1                                        
   368        368       PART-1-1                                        
   369        369       PART-1-1                                        
   370        370       PART-1-1                                        
   371        371       PART-1-1                                        
   372        372       PART-1-1                                        
   373        373       PART-1-1                                        
   374        374       PART-1-1                                        
   375        375       PART-1-1                                        
   376        376       PART-1-1                                        
   377        377       PART-1-1                                        
   378        378       PART-1-1                                        
   379        379       PART-1-1                                        
   380        380       PART-1-1                                        
   381        381       PART-1-1                                        
   382        382       PART-1-1                                        
   383        383       PART-1-1                                        
   384        384       PART-1-1                                        
   385        385       PART-1-1                                        
   386        386       PART-1-1                                        
   387        387       PART-1-1                                        
   388        388       PART-1-1                                        
   389        389       PART-1-1                                        
   390        390       PART-1-1                                        
   391        391       PART-1-1                                        
   392        392       PART-1-1                                        
   393        393       PART-1-1                                        
   394        394       PART-1-1                                        
   395        395       PART-1-1                                        
   396        396       PART-1-1                                        
   397        397       PART-1-1                                        
   398        398       PART-1-1                                        
   399        399       PART-1-1                                        
   400        400       PART-1-1                                        
   401        401       PART-1-1                                        
   402        402       PART-1-1                                        
   403        403       PART-1-1                                        
   404        404       PART-1-1                                        
   405        405       PART-1-1                                        
   406        406       PART-1-1                                        
   407        407       PART-1-1                                        
   408        408       PART-1-1                                        
   409        409       PART-1-1                                        
   410        410       PART-1-1                                        
   411        411       PART-1-1                                        
   412        412       PART-1-1                                        
   413        413       PART-1-1                                        
   414        414       PART-1-1                                        
   415        415       PART-1-1                                        
   416        416       PART-1-1                                        
   417        417       PART-1-1                                        
   418        418       PART-1-1                                        
   419        419       PART-1-1                                        
   420        420       PART-1-1                                        
   421        421       PART-1-1                                        
   422        422       PART-1-1                                        
   423        423       PART-1-1                                        
   424        424       PART-1-1                                        
   425        425       PART-1-1                                        
   426        426       PART-1-1                                        
   427        427       PART-1-1                                        
   428        428       PART-1-1                                        
   429        429       PART-1-1                                        
   430        430       PART-1-1                                        
   431        431       PART-1-1                                        
   432        432       PART-1-1                                        
   433        433       PART-1-1                                        
   434        434       PART-1-1                                        
   435        435       PART-1-1                                        
   436        436       PART-1-1                                        
   437        437       PART-1-1                                        
   438        438       PART-1-1                                        
   439        439       PART-1-1                                        
   440        440       PART-1-1                                        
   441        441       PART-1-1                                        
   442        442       PART-1-1                                        
   443        443       PART-1-1                                        
   444        444       PART-1-1                                        
   445        445       PART-1-1                                        
   446        446       PART-1-1                                        
   447        447       PART-1-1                                        
   448        448       PART-1-1                                        
   449        449       PART-1-1                                        
   450        450       PART-1-1                                        
   451        451       PART-1-1                                        
   452        452       PART-1-1                                        
   453        453       PART-1-1                                        
   454        454       PART-1-1                                        
   455        455       PART-1-1                                        
   456        456       PART-1-1                                        
   457        457       PART-1-1                                        
   458        458       PART-1-1                                        
   459        459       PART-1-1                                        
   460        460       PART-1-1                                        
   461        461       PART-1-1                                        
   462        462       PART-1-1                                        
   463        463       PART-1-1                                        
   464        464       PART-1-1                                        
   465        465       PART-1-1                                        
   466        466       PART-1-1                                        
   467        467       PART-1-1                                        
   468        468       PART-1-1                                        
   469        469       PART-1-1                                        
   470        470       PART-1-1                                        
   471        471       PART-1-1                                        
   472        472       PART-1-1                                        
   473        473       PART-1-1                                        
   474        474       PART-1-1                                        
   475        475       PART-1-1                                        
   476        476       PART-1-1                                        
   477        477       PART-1-1                                        
   478        478       PART-1-1                                        
   479        479       PART-1-1                                        
   480        480       PART-1-1                                        
   481        481       PART-1-1                                        
   482        482       PART-1-1                                        
   483        483       PART-1-1                                        
   484        484       PART-1-1                                        
   485        485       PART-1-1                                        
   486        486       PART-1-1                                        
   487        487       PART-1-1                                        
   488        488       PART-1-1                                        
   489        489       PART-1-1                                        
   490        490       PART-1-1                                        
   491        491       PART-1-1                                        
   492        492       PART-1-1                                        
   493        493       PART-1-1                                        
   494        494       PART-1-1                                        
   495        495       PART-1-1                                        
   496        496       PART-1-1                                        
   497        497       PART-1-1                                        
   498        498       PART-1-1                                        
   499        499       PART-1-1                                        
   500        500       PART-1-1                                        
   501        501       PART-1-1                                        
   502        502       PART-1-1                                        
   503        503       PART-1-1                                        
   504        504       PART-1-1                                        
   505        505       PART-1-1                                        
   506        506       PART-1-1                                        
   507        507       PART-1-1                                        
   508        508       PART-1-1                                        
   509        509       PART-1-1                                        
   510        510       PART-1-1                                        
   511        511       PART-1-1                                        
   512        512       PART-1-1                                        
   513        513       PART-1-1                                        
   514        514       PART-1-1                                        
   515        515       PART-1-1                                        
   516        516       PART-1-1                                        
   517        517       PART-1-1                                        
   518        518       PART-1-1                                        
   519        519       PART-1-1                                        
   520        520       PART-1-1                                        
   521        521       PART-1-1                                        
   522        522       PART-1-1                                        
   523        523       PART-1-1                                        
   524        524       PART-1-1                                        
   525        525       PART-1-1                                        
   526        526       PART-1-1                                        
   527        527       PART-1-1                                        
   528        528       PART-1-1                                        
   529        529       PART-1-1                                        
   530        530       PART-1-1                                        
   531        531       PART-1-1                                        
   532        532       PART-1-1                                        
   533        533       PART-1-1                                        
   534        534       PART-1-1                                        
   535        535       PART-1-1                                        
   536        536       PART-1-1                                        
   537        537       PART-1-1                                        
   538        538       PART-1-1                                        
   539        539       PART-1-1                                        
   540        540       PART-1-1                                        
   541        541       PART-1-1                                        
   542        542       PART-1-1                                        
   543        543       PART-1-1                                        
   544        544       PART-1-1                                        
   545        545       PART-1-1                                        
   546        546       PART-1-1                                        
   547        547       PART-1-1                                        
   548        548       PART-1-1                                        
   549        549       PART-1-1                                        
   550        550       PART-1-1                                        
   551        551       PART-1-1                                        
   552        552       PART-1-1                                        
   553        553       PART-1-1                                        
   554        554       PART-1-1                                        
   555        555       PART-1-1                                        
   556        556       PART-1-1                                        
   557        557       PART-1-1                                        
   558        558       PART-1-1                                        
   559        559       PART-1-1                                        
   560        560       PART-1-1                                        
   561        561       PART-1-1                                        
   562        562       PART-1-1                                        
   563        563       PART-1-1                                        
   564        564       PART-1-1                                        
   565        565       PART-1-1                                        
   566        566       PART-1-1                                        
   567        567       PART-1-1                                        
   568        568       PART-1-1                                        
   569        569       PART-1-1                                        
   570        570       PART-1-1                                        
   571        571       PART-1-1                                        
   572        572       PART-1-1                                        
   573        573       PART-1-1                                        
   574        574       PART-1-1                                        
   575        575       PART-1-1                                        
   576        576       PART-1-1                                        
   577        577       PART-1-1                                        
   578        578       PART-1-1                                        
   579        579       PART-1-1                                        
   580        580       PART-1-1                                        
   581        581       PART-1-1                                        
   582        582       PART-1-1                                        
   583        583       PART-1-1                                        
   584        584       PART-1-1                                        
   585        585       PART-1-1                                        
   586        586       PART-1-1                                        
   587        587       PART-1-1                                        
   588        588       PART-1-1                                        
   589        589       PART-1-1                                        
   590        590       PART-1-1                                        
   591        591       PART-1-1                                        
   592        592       PART-1-1                                        
   593        593       PART-1-1                                        
   594        594       PART-1-1                                        
   595        595       PART-1-1                                        
   596        596       PART-1-1                                        
   597        597       PART-1-1                                        
   598        598       PART-1-1                                        
   599        599       PART-1-1                                        
   600        600       PART-1-1                                        
   601        601       PART-1-1                                        
   602        602       PART-1-1                                        
   603        603       PART-1-1                                        
   604        604       PART-1-1                                        
   605        605       PART-1-1                                        
   606        606       PART-1-1                                        
   607        607       PART-1-1                                        
   608        608       PART-1-1                                        
   609        609       PART-1-1                                        
   610        610       PART-1-1                                        
   611        611       PART-1-1                                        
   612        612       PART-1-1                                        
   613        613       PART-1-1                                        
   614        614       PART-1-1                                        
   615        615       PART-1-1                                        
   616        616       PART-1-1                                        
   617        617       PART-1-1                                        
   618        618       PART-1-1                                        
   619        619       PART-1-1                                        
   620        620       PART-1-1                                        
   621        621       PART-1-1                                        
   622        622       PART-1-1                                        
   623        623       PART-1-1                                        
   624        624       PART-1-1                                        
   625        625       PART-1-1                                        
   626        626       PART-1-1                                        
   627        627       PART-1-1                                        
   628        628       PART-1-1                                        
   629        629       PART-1-1                                        
   630        630       PART-1-1                                        
   631        631       PART-1-1                                        
   632        632       PART-1-1                                        
   633        633       PART-1-1                                        
   634        634       PART-1-1                                        
   635        635       PART-1-1                                        
   636        636       PART-1-1                                        
   637        637       PART-1-1                                        
   638        638       PART-1-1                                        
   639        639       PART-1-1                                        
   640        640       PART-1-1                                        
   641        641       PART-1-1                                        
   642        642       PART-1-1                                        
   643        643       PART-1-1                                        
   644        644       PART-1-1                                        
   645        645       PART-1-1                                        
   646        646       PART-1-1                                        
   647        647       PART-1-1                                        
   648        648       PART-1-1                                        
   649        649       PART-1-1                                        
   650        650       PART-1-1                                        
   651        651       PART-1-1                                        
   652        652       PART-1-1                                        
   653        653       PART-1-1                                        
   654        654       PART-1-1                                        
   655        655       PART-1-1                                        
   656        656       PART-1-1                                        
   657        657       PART-1-1                                        
   658        658       PART-1-1                                        
   659        659       PART-1-1                                        
   660        660       PART-1-1                                        
   661        661       PART-1-1                                        
   662        662       PART-1-1                                        
   663        663       PART-1-1                                        
   664        664       PART-1-1                                        
   665        665       PART-1-1                                        
   666        666       PART-1-1                                        
   667        667       PART-1-1                                        
   668        668       PART-1-1                                        
   669        669       PART-1-1                                        
   670        670       PART-1-1                                        
   671        671       PART-1-1                                        
   672        672       PART-1-1                                        
   673        673       PART-1-1                                        
   674        674       PART-1-1                                        
   675        675       PART-1-1                                        
   676        676       PART-1-1                                        
   677        677       PART-1-1                                        
   678        678       PART-1-1                                        
   679        679       PART-1-1                                        
   680        680       PART-1-1                                        
   681        681       PART-1-1                                        
   682        682       PART-1-1                                        
   683        683       PART-1-1                                        
   684        684       PART-1-1                                        
   685        685       PART-1-1                                        
   686        686       PART-1-1                                        
   687        687       PART-1-1                                        
   688        688       PART-1-1                                        
   689        689       PART-1-1                                        
   690        690       PART-1-1                                        
   691        691       PART-1-1                                        
   692        692       PART-1-1                                        
   693        693       PART-1-1                                        
   694        694       PART-1-1                                        
   695        695       PART-1-1                                        
   696        696       PART-1-1                                        
   697        697       PART-1-1                                        
   698        698       PART-1-1                                        
   699        699       PART-1-1                                        
   700        700       PART-1-1                                        
   701        701       PART-1-1                                        
   702        702       PART-1-1                                        
   703        703       PART-1-1                                        
   704        704       PART-1-1                                        
   705        705       PART-1-1                                        
   706        706       PART-1-1                                        
   707        707       PART-1-1                                        
   708        708       PART-1-1                                        
   709        709       PART-1-1                                        
   710        710       PART-1-1                                        
   711        711       PART-1-1                                        
   712        712       PART-1-1                                        
   713        713       PART-1-1                                        
   714        714       PART-1-1                                        
   715        715       PART-1-1                                        
   716        716       PART-1-1                                        
   717        717       PART-1-1                                        
   718        718       PART-1-1                                        
   719        719       PART-1-1                                        
   720        720       PART-1-1                                        
   721        721       PART-1-1                                        
   722        722       PART-1-1                                        
   723        723       PART-1-1                                        
   724        724       PART-1-1                                        
   725        725       PART-1-1                                        
   726        726       PART-1-1                                        
   727        727       PART-1-1                                        
   728        728       PART-1-1                                        
   729        729       PART-1-1                                        
   730        730       PART-1-1                                        
   731        731       PART-1-1                                        
   732        732       PART-1-1                                        
   733        733       PART-1-1                                        
   734        734       PART-1-1                                        
   735        735       PART-1-1                                        
   736        736       PART-1-1                                        
   737        737       PART-1-1                                        
   738        738       PART-1-1                                        
   739        739       PART-1-1                                        
   740        740       PART-1-1                                        
   741        741       PART-1-1                                        
   742        742       PART-1-1                                        
   743        743       PART-1-1                                        
   744        744       PART-1-1                                        
   745        745       PART-1-1                                        
   746        746       PART-1-1                                        
   747        747       PART-1-1                                        
   748        748       PART-1-1                                        
   749        749       PART-1-1                                        
   750        750       PART-1-1                                        
   751        751       PART-1-1                                        
   752        752       PART-1-1                                        
   753        753       PART-1-1                                        
   754        754       PART-1-1                                        
   755        755       PART-1-1                                        
   756        756       PART-1-1                                        
   757        757       PART-1-1                                        
   758        758       PART-1-1                                        
   759        759       PART-1-1                                        
   760        760       PART-1-1                                        
   761        761       PART-1-1                                        
   762        762       PART-1-1                                        
   763        763       PART-1-1                                        
   764        764       PART-1-1                                        
   765        765       PART-1-1                                        
   766        766       PART-1-1                                        
   767        767       PART-1-1                                        
   768        768       PART-1-1                                        
   769        769       PART-1-1                                        
   770        770       PART-1-1                                        
   771        771       PART-1-1                                        
   772        772       PART-1-1                                        
   773        773       PART-1-1                                        
   774        774       PART-1-1                                        
   775        775       PART-1-1                                        
   776        776       PART-1-1                                        
   777        777       PART-1-1                                        
   778        778       PART-1-1                                        
   779        779       PART-1-1                                        
   780        780       PART-1-1                                        
   781        781       PART-1-1                                        
   782        782       PART-1-1                                        
   783        783       PART-1-1                                        
   784        784       PART-1-1                                        
   785        785       PART-1-1                                        
   786        786       PART-1-1                                        
   787        787       PART-1-1                                        
   788        788       PART-1-1                                        
   789        789       PART-1-1                                        
   790        790       PART-1-1                                        
   791        791       PART-1-1                                        
   792        792       PART-1-1                                        
   793        793       PART-1-1                                        
   794        794       PART-1-1                                        
   795        795       PART-1-1                                        
   796        796       PART-1-1                                        
   797        797       PART-1-1                                        
   798        798       PART-1-1                                        
   799        799       PART-1-1                                        
   800        800       PART-1-1                                        
   801        801       PART-1-1                                        
   802        802       PART-1-1                                        
   803        803       PART-1-1                                        
   804        804       PART-1-1                                        
   805        805       PART-1-1                                        
   806        806       PART-1-1                                        
   807        807       PART-1-1                                        
   808        808       PART-1-1                                        
   809        809       PART-1-1                                        
   810        810       PART-1-1                                        
   811        811       PART-1-1                                        
   812        812       PART-1-1                                        
   813        813       PART-1-1                                        
   814        814       PART-1-1                                        
   815        815       PART-1-1                                        
   816        816       PART-1-1                                        
   817        817       PART-1-1                                        
   818        818       PART-1-1                                        
   819        819       PART-1-1                                        
   820        820       PART-1-1                                        
   821        821       PART-1-1                                        
   822        822       PART-1-1                                        
   823        823       PART-1-1                                        
   824        824       PART-1-1                                        
   825        825       PART-1-1                                        
   826        826       PART-1-1                                        
   827        827       PART-1-1                                        
   828        828       PART-1-1                                        
   829        829       PART-1-1                                        
   830        830       PART-1-1                                        
   831        831       PART-1-1                                        
   832        832       PART-1-1                                        
   833        833       PART-1-1                                        
   834        834       PART-1-1                                        
   835        835       PART-1-1                                        
[...]
        749      1.4448438E+00 -4.4115638E-02 -3.7833136E-02
        750      2.2064009E+00  2.4809923E-02 -7.1252516E-03
        751      2.5862389E+00 -1.1661158E-01  1.2068267E-02
        752      2.6616878E+00 -3.1371384E-02 -5.2549404E-03
        753      3.0000000E+00  0.0000000E+00  0.0000000E+00
        754      2.3603298E+00 -2.7563185E-01  4.7196236E-02
        755      3.7175480E-01 -9.7852191E-03 -1.3399497E-02
        757      3.4448346E-01  1.7372957E-02 -4.2883949E-02
        759      3.5813173E-01  4.3216443E-02  6.1576449E-03
        761      7.2487827E-01 -3.9353952E-02  6.4331656E-02
        762      6.0627006E-01 -4.9939544E-02 -1.9979020E-02
        763      7.3797893E-01 -2.1214518E-02 -2.9844680E-02
        765      3.0000000E+00  0.0000000E+00  0.0000000E+00
        766      3.0000000E+00  0.0000000E+00  0.0000000E+00
        767      3.0000000E+00  0.0000000E+00  0.0000000E+00
        768      2.5853330E+00  2.9829324E-02 -6.3361191E-02
        769      2.6600383E+00  2.0076306E-02 -3.6994797E-02
        770      2.5824608E+00  4.9972260E-02  5.5387727E-03
        771      2.9506715E-01  3.0559587E-02  6.9353303E-03
        772      3.0000000E+00  0.0000000E+00  0.0000000E+00
        773      3.0000000E+00  0.0000000E+00  0.0000000E+00
        774      2.3126973E+00 -4.4513574E-03 -8.9650028E-04
        775      3.0000000E+00  0.0000000E+00  0.0000000E+00
        776      3.0000000E+00  0.0000000E+00  0.0000000E+00
        777      7.4572895E-01  6.2661723E-03 -1.3332731E-02
        778      3.0000000E+00  0.0000000E+00  0.0000000E+00
        779      3.0000000E+00  0.0000000E+00  0.0000000E+00
        780      2.5794641E+00  2.6257205E-02 -5.9086609E-02
        781      1.0956528E+00 -6.6100478E-02 -3.2034499E-02
        782      1.8241739E+00 -7.3716365E-02  3.1763973E-03
        783      3.0000000E+00  0.0000000E+00  0.0000000E+00
        784      2.7156419E+00 -6.1072750E-02  1.3261944E-01
        785      7.8514194E-01 -8.4293448E-03 -1.3005682E-02
        786      2.4822951E+00  4.9340983E-02 -6.1923538E-02
        787      2.1806977E+00  1.2714331E-02 -2.0054584E-02
        788      3.0000000E+00  0.0000000E+00  0.0000000E+00
        789      1.9381489E+00  6.2388372E-02 -3.1061386E-02
        790      1.8892916E+00  5.3616779E-02 -4.1693475E-02
        791      2.5752086E+00  4.6730008E-02 -5.7031737E-02
        792      2.6321203E+00 -3.0324692E-02  4.2519698E-02
        793      2.2473707E+00 -6.8425459E-02 -6.9836875E-03
        794      2.3924042E+00 -5.5282572E-02  2.0589414E-02
        795      3.0000000E+00  0.0000000E+00  0.0000000E+00
        796      2.3262454E+00 -6.8119055E-02 -1.5031234E-02
        797      2.1828411E+00 -4.4848741E-02 -2.5728666E-02
        798      2.2528048E+00 -4.8221596E-02 -2.4344440E-03
        799      3.0000000E+00  0.0000000E+00  0.0000000E+00
        800      3.0000000E+00  0.0000000E+00  0.0000000E+00
        802      3.7208373E-01  4.0350050E-02  2.4142293E-02
        803      3.0000000E+00  0.0000000E+00  0.0000000E+00
        804      1.1600770E+00 -5.3143843E-02 -1.0347618E-02
        805      1.4951384E+00 -2.3252135E-02  5.0504160E-03
        806      1.5620418E+00 -3.4892913E-02 -2.0024592E-02
        807      3.0000000E+00  0.0000000E+00  0.0000000E+00
        808      3.0000000E+00  0.0000000E+00  0.0000000E+00
        809      2.2726128E+00  6.4709390E-02 -1.4433708E-02
        810      3.0000000E+00  0.0000000E+00  0.0000000E+00
        811      3.0000000E+00  0.0000000E+00  0.0000000E+00
        812      3.0000000E+00  0.0000000E+00  0.0000000E+00
        813      2.5157291E+00 -6.7166515E-02 -3.3519560E-02
        814      3.0000000E+00  0.0000000E+00  0.0000000E+00
        815      1.5603059E+00 -2.7782256E-02  2.2172685E-02
        816      2.2405735E+00 -8.8821533E-03  1.5748729E-02
        817      1.9048979E+00 -4.0303764E-02  1.6606422E-02
        818      3.0000000E+00  0.0000000E+00  0.0000000E+00
        819      3.0000000E+00  0.0000000E+00  0.0000000E+00
        820      2.1953518E+00 -3.5981600E-02  8.6261767E-04
        821      3.0000000E+00  0.0000000E+00  0.0000000E+00
        822      3.0000000E+00  0.0000000E+00  0.0000000E+00
        823      3.0000000E+00  0.0000000E+00  0.0000000E+00
        824      3.0000000E+00  0.0000000E+00  0.0000000E+00
        825      2.6597913E+00 -1.9669697E-02 -4.0321833E-04
        826      2.6500369E+00 -2.7097713E-04  1.0051380E-02
        827      2.6885070E+00 -3.4663288E-02  1.5064173E-02
        830      2.9224084E-01  2.7848888E-02  1.7672881E-02
        832      1.1599883E+00 -4.6483529E-02  5.2749376E-02
        833      7.5001481E-01  3.6048574E-02 -4.6252015E-03
        834      8.6817934E-01 -6.8207219E-02 -8.4637707E-03
        835      5.7980145E-01 -3.8629364E-01 -1.0853178E-02
        836      9.9139074E-01 -5.0240823E-01 -8.6054622E-04
        837      3.7057509E-01 -2.6682135E-02 -2.9960396E-02
        839      3.0175755E-01  2.9899219E-02 -2.5883171E-02
        840      2.7016516E+00  1.3455501E-02  8.9359824E-03
        841      3.0000000E+00  0.0000000E+00  0.0000000E+00
        842      2.5355549E+00  6.9804432E-02  4.0777452E-02
        843      3.0000000E+00  0.0000000E+00  0.0000000E+00
        844      1.0362671E+00 -7.0646553E-02 -9.0802413E-02
        845      7.2446312E-01  6.9268264E-03 -3.4760669E-02
        847      4.1577625E-01 -3.3204255E-02 -7.4338555E-02
        848      6.7528948E-01  1.8398945E-02 -1.2446913E-01
        849      3.8702617E-01 -3.3855679E-02  1.0438355E-02
        850      2.6399176E+00 -6.8374032E-02  1.7572997E-01
        851      2.2451108E+00 -2.2077733E-01  1.3948197E-01
        852      2.2063346E+00 -1.2237949E-01  1.4484291E-01
        853      2.3872287E+00 -3.6644539E-01  2.4288706E-01
        854      3.6716610E-01 -2.5954860E-02 -1.5361710E-02
        855      3.7918797E-01 -1.8777350E-02 -2.3974547E-02
        859      2.3257723E+00 -2.8816394E-01  7.0743814E-02
        861      3.0000000E+00  0.0000000E+00  0.0000000E+00
        862      2.7164361E+00  2.6363108E-02  2.0587545E-02
        863      2.6344760E+00  4.2652104E-02  3.3686747E-02
        864      3.0000000E+00  0.0000000E+00  0.0000000E+00
        865      3.0000000E+00  0.0000000E+00  0.0000000E+00
        866      2.2371572E+00  8.0252174E-03 -1.7610676E-02
        867      3.0000000E+00  0.0000000E+00  0.0000000E+00
        868      3.3307195E-01 -5.1228390E-02 -2.1047907E-03
        870      2.5384123E+00  1.5412065E-01  6.8097957E-02
        872      3.8822843E-01 -1.6022149E-03  6.1379157E-02
        873      5.0315258E-01 -4.0667925E-01  1.5431843E-01
        874      1.2326280E+00  1.9990619E-01 -4.8794902E-02
        875      7.3936772E-01  1.0249405E-01 -1.4943955E-01
        876      1.1923228E+00  1.8419840E-01 -1.6062973E-01
        877      1.7535282E+00  1.0643209E-01  5.0619090E-05
        878      1.9431207E+00 -4.6965721E-01  8.7796108E-02
        879      1.4795292E+00 -1.5455234E-01  7.3514161E-02
        880      1.4701600E+00 -5.0922577E-01  8.8775427E-02
        884      3.4396038E-01  3.3027868E-02 -6.3612809E-02
        885      4.3898640E-01  5.1609577E-02 -2.6485702E-02
        887      2.2437345E+00  1.0144749E-02 -1.4348025E-03
        888      3.0000000E+00  0.0000000E+00  0.0000000E+00
        889      3.0000000E+00  0.0000000E+00  0.0000000E+00
        890      2.1944746E+00  7.7540442E-03  2.0333206E-02
        891      2.2598809E+00  7.4212351E-03  4.1973419E-03
        892      3.0000000E+00  0.0000000E+00  0.0000000E+00
        893      2.5342177E+00  7.5974763E-02  1.5179872E-02
        894      3.0000000E+00  0.0000000E+00  0.0000000E+00
        895      1.6171732E+00  5.9826941E-02 -3.8940270E-03
        896      2.1990607E+00 -5.9525496E-03  8.1535952E-03
        897      7.9297047E-01  2.0474849E-02  7.5787153E-03
        901      3.8682248E-01  4.5688898E-02  4.5992235E-02
        903      2.4677304E+00 -6.0259728E-02 -3.3420676E-02
        904      2.2769935E+00 -3.3138927E-02  4.6072819E-03
        905      2.1959239E+00 -8.3081865E-03  5.8794492E-03
        906      1.7712945E+00 -5.4669898E-02 -4.2157103E-03
        910      3.4324211E-01 -4.0282365E-02  5.8708307E-02
        911      7.2404347E-01  3.4258151E-02  6.2456851E-02
        913      6.9107949E-01  3.5800374E-02  1.1089457E-01
        914      7.1166422E-01  7.8552100E-02  1.1056528E-01
        915      1.4209222E+00 -4.2844583E-02  3.6587935E-02
        916      2.6929832E+00 -5.3744150E-02 -1.6374952E-02
        917      3.0000000E+00  0.0000000E+00  0.0000000E+00
        918      3.0000000E+00  0.0000000E+00  0.0000000E+00
        919      2.6669471E+00 -3.9913895E-02  5.3229931E-02
        920      3.0000000E+00  0.0000000E+00  0.0000000E+00
        921      3.0000000E+00  0.0000000E+00  0.0000000E+00
        922      3.0000000E+00  0.0000000E+00  0.0000000E+00
        923      3.0000000E+00  0.0000000E+00  0.0000000E+00
        924      2.1970523E+00 -4.4845441E-02  1.0196200E-02
        925      2.5212723E+00 -7.2564672E-02  8.8617596E-03
        926      2.5883383E+00 -6.3140051E-02 -1.0299629E-02
        927      3.0000000E+00  0.0000000E+00  0.0000000E+00
        928      2.2637467E+00 -5.9095320E-02  4.4454847E-03
        929      5.3888270E-01  5.8673678E-02  3.7445662E-02
        934      7.4320615E-01  7.5666121E-02 -5.1942597E-02
        937      5.7959653E-01  3.7471497E-01  3.9134410E-02
        938      1.5040451E+00 -9.6273150E-03  2.4545794E-03
        939      1.4145441E+00  5.3396863E-02  5.2250274E-03
        940      8.0251576E-01  4.1082772E-03 -3.1327164E-04
        941      2.7115376E+00 -4.2179805E-02 -4.7751046E-02
        942      2.1504441E+00 -1.4919020E-01 -7.1233327E-02
        943      3.7045336E-01  4.9851290E-02  4.0179635E-02
        945      3.0000000E+00  0.0000000E+00  0.0000000E+00
        948      5.2404821E-01  2.1824651E-01  1.6287508E-02
        949      3.0000000E+00  0.0000000E+00  0.0000000E+00
        950      2.5821276E+00  3.0058153E-02 -7.8959878E-03
        953      7.8918081E-01 -4.2020143E-02  3.6637924E-03
        954      2.7787104E-01  1.4625483E-02 -2.7153922E-02
        955      3.0000000E+00  0.0000000E+00  0.0000000E+00
        956      2.6733408E+00  2.0041082E-02  1.7344447E-02
        957      3.0000000E+00  0.0000000E+00  0.0000000E+00
        958      3.0000000E+00  0.0000000E+00  0.0000000E+00
        960      2.4939478E+00 -3.1913675E-02  1.2932454E-02
        961      3.0000000E+00  0.0000000E+00  0.0000000E+00
        962      1.8316150E+00 -5.1504018E-02 -6.9065130E-03
        963      4.2768041E-01  4.4945601E-02  4.8539358E-03
        964      1.9463228E+00  6.7974563E-02  4.5485306E-02
        965      2.2047831E+00  4.7734835E-02 -4.1887394E-03
        966      2.2042400E+00  5.0620896E-02 -1.6852770E-02
        967      2.2008818E+00 -1.9915633E-02 -2.5087816E-04
        968      3.0000000E+00  0.0000000E+00  0.0000000E+00
        969      1.6386093E+00 -1.9691115E-01 -5.3804948E-02
        970      1.4485428E+00 -5.7199617E-01 -5.5882074E-02
        971      2.2220952E+00 -1.0246746E-01 -2.1177326E-01
        972      1.5197327E+00 -5.0263840E-01 -1.1629429E-01
        976      2.8104610E-01 -3.1987058E-02  2.5085619E-02
        977      1.9165424E+00  6.8598319E-02  2.8999575E-02
        978      1.1726885E+00 -5.2950564E-02 -3.9993731E-02
        979      1.7279948E+00  1.9714277E-01  3.3522798E-02
        981      1.7774207E+00 -7.3261895E-02  1.6103745E-02
        982      7.5675376E-01  2.2923240E-02 -1.6964734E-02
        984      3.3788472E-01 -5.5506551E-02  2.5880173E-02
        985      2.6009686E-01 -1.2402446E-02 -5.1968568E-04
        988      1.2162884E+00  1.1623281E-01 -6.8582676E-04
        990      7.2340641E-01  8.6144183E-02  5.2808417E-02
        991      3.0000000E+00  0.0000000E+00  0.0000000E+00
        992      3.0000000E+00  0.0000000E+00  0.0000000E+00
        993      2.6574789E+00  2.8785705E-02 -7.0208657E-02
        994      1.8062134E+00 -7.8495736E-02  6.1462919E-03
        995      1.7169752E+00  1.4288231E-01  4.4762662E-02
        996      1.5405541E+00  5.4353054E-01  1.1430603E-01
        997      1.1819761E+00  2.0179066E-01  1.7490557E-01
        998      1.2008221E+00  2.1700748E-01  4.7637523E-02
        999      1.5628500E+00  6.0924135E-01  5.2668294E-02
       1000      1.0701739E+00  4.8386784E-01  7.4104083E-02
       1001      6.3382452E-01  6.9484986E-02 -1.5059592E-02
       1004      1.5827025E+00  5.9548255E-01  1.7867806E-02
       1005      2.4012302E+00 -5.0318289E-02 -5.6128108E-03
       1006      3.0000000E+00  0.0000000E+00  0.0000000E+00
       1007      1.0275011E+00 -7.3642611E-02  8.0075543E-02
       1008      2.4891015E+00 -2.1131861E-02 -1.0758234E-02
       1009      1.4460652E+00  4.6209356E-02  3.2669048E-03
       1010      1.8702240E+00  5.9700434E-02 -4.8444571E-02
       1011      1.1510644E+00  6.1910302E-02  1.7856810E-03
       1013      2.5690858E+00  6.6598311E-02  2.8309628E-02
       1014      3.0000000E+00  0.0000000E+00  0.0000000E+00
       1015      2.6566725E+00  2.8698671E-02  2.3853971E-02
       1016      2.2102817E+00 -1.2910479E-02  1.2964801E-02
       1017      1.5518367E+00  5.2661906E-02 -1.0682027E-02
       1018      2.6416433E+00 -4.4053485E-02 -2.2833119E-02
       1019      3.0000000E+00  0.0000000E+00  0.0000000E+00
       1020      2.5960345E+00 -6.1922901E-02 -3.3063551E-02
       1021      3.0000000E+00  0.0000000E+00  0.0000000E+00
       1022      2.6953470E+00 -4.2893777E-02 -4.3525041E-02
       1023      3.0000000E+00  0.0000000E+00  0.0000000E+00
       1025      2.5875463E+00  4.7567128E-02  3.7820698E-02
       1026      2.2426849E+00  7.1513089E-02  2.6952462E-02
       1028      3.0000000E+00  0.0000000E+00  0.0000000E+00
       1030      3.0000000E+00  0.0000000E+00  0.0000000E+00
       1031      2.7119142E+00  1.9316394E-02 -3.3776229E-02
       1032      3.0000000E+00  0.0000000E+00  0.0000000E+00
       1033      3.0000000E+00  0.0000000E+00  0.0000000E+00
       1034      3.0000000E+00  0.0000000E+00  0.0000000E+00
       1039      3.0000000E+00  0.0000000E+00  0.0000000E+00
       1042      5.2961198E-01  2.0704757E-01  5.1345495E-02
       1043      5.6792993E-01  4.0132156E-01  2.3851195E-01
       1044      5.9291531E-01  3.2426521E-01  2.6602206E-02
       1045      3.0000000E+00  0.0000000E+00  0.0000000E+00
       1047      2.4261512E+00  5.7758569E-02 -1.8325746E-02
       1048      2.6385416E+00  4.9086449E-02  1.1226115E-02
       1049      1.9001807E+00 -5.5353176E-02 -2.5300014E-02
       1050      2.2344288E+00  1.7914571E-02  2.6384271E-02
       1052      3.0000000E+00  0.0000000E+00  0.0000000E+00
       1053      3.0000000E+00  0.0000000E+00  0.0000000E+00
       1054      1.3938309E+00 -5.5995393E-02  3.1382733E-03
       1055      3.0000000E+00  0.0000000E+00  0.0000000E+00
       1056      2.6472467E+00 -2.7853948E-02 -1.4356255E-02
       1058      8.4444277E-01 -6.2501851E-02  3.6455829E-02
       1060      3.0000000E+00  0.0000000E+00  0.0000000E+00
       1062      3.0000000E+00  0.0000000E+00  0.0000000E+00
       1064      4.1398667E-01 -2.4659117E-02 -1.5389320E-02
       1065      4.6074101E-01 -3.3200466E-02  3.6117073E-02
       1066      3.0000000E+00  0.0000000E+00  0.0000000E+00
       1067      3.0000000E+00  0.0000000E+00  0.0000000E+00
       1068      2.5011570E+00  4.5143593E-02 -4.4923709E-02
       1070      6.3765186E-01  7.6404002E-02  3.4207462E-02
       1071      4.2222647E-01  5.5732499E-02  3.5724298E-02
       1072      4.9475031E-01  2.3289720E-01  1.9340462E-01
       1076      3.0000000E+00  0.0000000E+00  0.0000000E+00
       1077      3.0000000E+00  0.0000000E+00  0.0000000E+00
       1079      3.0000000E+00  0.0000000E+00  0.0000000E+00
       1080      3.0000000E+00  0.0000000E+00  0.0000000E+00
       1081      3.0000000E+00  0.0000000E+00  0.0000000E+00
       1082      2.5908731E+00 -5.4933663E-02  5.4719748E-02
       1083      3.0000000E+00  0.0000000E+00  0.0000000E+00
       1084      3.0000000E+00  0.0000000E+00  0.0000000E+00
       1085      5.9360137E-01 -2.8909402E-01 -1.3040422E-01
       1086      3.6828995E-01 -3.3397431E-02 -8.7876714E-02
       1088      4.3136606E-01 -3.5101391E-01 -1.3560524E-01
       1089      3.0000000E+00  0.0000000E+00  0.0000000E+00
       1090      2.4080016E+00  6.8503437E-02  3.2950900E-02
       1091      3.0000000E+00  0.0000000E+00  0.0000000E+00
       1092      3.0000000E+00  0.0000000E+00  0.0000000E+00
       1094      1.5574691E+00  5.3620386E-01 -1.1065444E-01
       1095      1.6109835E+00  5.8132538E-01 -4.6680156E-02
       1097      2.5613516E+00 -3.9518331E-02 -6.2384863E-02
       1098      3.0000000E+00  0.0000000E+00  0.0000000E+00
       1099      3.0000000E+00  0.0000000E+00  0.0000000E+00
       1100      3.0000000E+00  0.0000000E+00  0.0000000E+00
       1102      2.7777235E+00 -6.2048032E-02 -1.0010964E-01
       1103      3.0000000E+00  0.0000000E+00  0.0000000E+00
       1104      3.0000000E+00  0.0000000E+00  0.0000000E+00
       1105      1.9324555E+00 -4.6940287E-01 -1.2266807E-01
       1106      2.6752969E+00 -1.2152466E-01 -2.0000013E-01
       1107      2.3913642E+00 -1.7119288E-01 -1.4435271E-01
       1108      2.4560793E+00 -3.7832319E-01 -2.6994039E-01
       1109      3.0000000E+00  0.0000000E+00  0.0000000E+00
       1111      3.0000000E+00  0.0000000E+00  0.0000000E+00
       1113      3.0000000E+00  0.0000000E+00  0.0000000E+00
       1114      3.0000000E+00  0.0000000E+00  0.0000000E+00
       1115      3.0000000E+00  0.0000000E+00  0.0000000E+00
       1116      2.6545190E+00 -4.7274427E-02 -1.1719440E-01
       1117      2.7152570E+00 -1.0803716E-01 -1.4698844E-01
       1118      3.0000000E+00  0.0000000E+00  0.0000000E+00
       1119      3.0000000E+00  0.0000000E+00  0.0000000E+00
       1120      3.0000000E+00  0.0000000E+00  0.0000000E+00
       1122      8.2123376E-01 -1.0231297E-03 -2.2564156E-03
       1123      1.5253466E+00 -5.6658720E-03  7.1337313E-03
       1124      3.0000000E+00  0.0000000E+00  0.0000000E+00
       1125      3.0000000E+00  0.0000000E+00  0.0000000E+00
       1126      1.1322380E+00  6.0164468E-02  1.1023153E-02
       1127      3.0000000E+00  0.0000000E+00  0.0000000E+00
       1128      3.0000000E+00  0.0000000E+00  0.0000000E+00
       1129      2.6154918E+00 -8.7949666E-03 -8.6512123E-03
       1130      3.0000000E+00  0.0000000E+00  0.0000000E+00
       1131      3.0000000E+00  0.0000000E+00  0.0000000E+00
       1132      3.0000000E+00  0.0000000E+00  0.0000000E+00
       1134      3.0000000E+00  0.0000000E+00  0.0000000E+00
       1135      3.0000000E+00  0.0000000E+00  0.0000000E+00
       1136      3.0000000E+00  0.0000000E+00  0.0000000E+00
       1137      3.0000000E+00  0.0000000E+00  0.0000000E+00
       1138      1.1658754E+00  6.9658152E-02  1.4817071E-02
       1139      2.6756505E+00 -2.5020630E-02  1.4353618E-02
       1140      3.0000000E+00  0.0000000E+00  0.0000000E+00
       1141      3.0000000E+00  0.0000000E+00  0.0000000E+00
       1142      3.0000000E+00  0.0000000E+00  0.0000000E+00
       1143      3.0000000E+00  0.0000000E+00  0.0000000E+00
       1144      3.0000000E+00  0.0000000E+00  0.0000000E+00
       1145      2.7266396E+00 -3.1456452E-02  2.0717039E-02

 MAXIMUM          3.000      0.6092      0.2488    
 AT NODE                 1         999          53

 MINIMUM          0.000     -0.5720     -0.2786    
 AT NODE                 5         970          85


          THE ANALYSIS HAS BEEN COMPLETED



                              ANALYSIS COMPLETE
                              WITH      3 WARNING MESSAGES ON THE DAT FILE



     JOB TIME SUMMARY
       USER TIME (SEC)      =   1.2000    
       SYSTEM TIME (SEC)    =  0.50000    
       TOTAL CPU TIME (SEC) =   1.7000    
       WALLCLOCK TIME (SEC) =          1
