*Heading
** Job name: sq-8mm_sin-per-4_sin-amp-0.6mm_tet_test Model name: Model-1
** Generated by: Abaqus/CAE 2021
*Preprint, echo=NO, model=NO, history=NO, contact=NO
**
** PARTS
**
*Part, name=Part-1
*End Part
**
**
** ASSEMBLY
**
*Assembly, name=Assembly
**
*Instance, name=Part-1-1, part=Part-1
*Node
1, -20, 4, 0
2, -16, 3.6473, 0
3, -12, 4.5706, 0
4, -8, 3.4294, 0
5, -4, 4.3527, 0
6, 4, 3.6473, 0
7, 8, 4.5706, 0
8, 12, 3.4294, 0
9, 16, 4.3527, 0
10, 20, 4, 0
11, 20, -4, 0
12, 16, -4.3527, 0
13, 12, -3.4294, 0
14, 8, -4.5706, 0
15, 4, -3.6473, 0
16, -4, -4.3527, 0
17, -8, -3.4294, 0
18, -12, -4.5706, 0
19, -16, -3.6473, 0
20, -20, -4, 0
** ... 790 like lines cut
*Element, type=C3D10H
1, 139, 45, 93, 148, 151, 149, 150, 152, 153, 154
2, 143, 50, 76, 137, 157, 155, 156, 158, 159, 160
3, 75, 114, 62, 113, 163, 161, 162, 164, 165, 166
4, 114, 90, 49, 36, 169, 167, 168, 170, 171, 172
5, 114, 35, 90, 36, 174, 173, 169, 170, 175, 171
6, 143, 132, 131, 73, 178, 176, 177, 179, 180, 181
7, 80, 63, 142, 117, 184, 182, 183, 185, 186, 187
8, 85, 141, 5, 106, 190, 188, 189, 191, 192, 193
9, 86, 21, 5, 132, 196, 194, 195, 197, 198, 199
10, 105, 31, 30, 95, 202, 200, 201, 203, 204, 205
11, 96, 131, 31, 47, 208, 206, 207, 209, 210, 211
12, 139, 128, 127, 71, 214, 212, 213, 215, 216, 217
13, 11, 116, 74, 22, 220, 218, 219, 221, 222, 223
14, 136, 16, 141, 86, 226, 224, 225, 227, 228, 229
15, 11, 64, 74, 116, 231, 230, 219, 220, 232, 218
16, 139, 148, 128, 71, 152, 233, 214, 215, 234, 216
17, 134, 133, 144, 59, 237, 235, 236, 238, 239, 240
18, 105, 95, 30, 56, 203, 205, 201, 241, 242, 243
19, 143, 97, 96, 50, 246, 244, 245, 157, 247, 248
20, 95, 42, 141, 96, 251, 249, 250, 252, 253, 254
** ... 359 like lines cut
*Nset, nset=Set-1, generate
1, 810, 1
*Elset, elset=Set-1, generate
1, 379, 1
** Section: Section-1
*Solid Section, elset=Set-1, controls=EC-1, material=Material-1
,
*End Instance
**
*Nset, nset=bc-set-1, instance=Part-1-1
1, 2, 3, 4, 5, 6, 7, 8, 9, 10, 21, 27, 28, 29, 30, 31
32, 33, 34, 35, 36, 47, 53, 54, 55, 56, 57, 58, 59, 60, 61, 62
73, 243, 256, 286, 299, 300, 313, 336, 344, 379, 448, 465, 473, 496, 538, 540
547, 580, 597, 692, 727, 740, 761, 771, 782, 804, 805
*Elset, elset=bc-set-1, instance=Part-1-1
3, 4, 5, 6, 8, 9, 10, 11, 17, 18, 21, 22, 23, 25, 26, 28
31, 32, 35, 37, 39, 40, 41, 42, 43, 45, 49, 50, 51, 53, 54, 56
57, 61, 64, 69, 70, 71, 72, 73, 74, 76, 77, 79, 80, 81, 82, 83
84, 88, 93, 106, 107, 108, 110, 111, 116, 119, 120, 122, 124, 126, 127, 128
129, 132, 133, 135, 136, 139, 142, 150, 158, 161, 162, 163, 165, 166, 167, 168
169, 171, 174, 177, 178, 184, 186, 191, 195, 196, 198, 200, 205, 206, 207, 212
216, 217, 218, 219, 222, 228, 232, 236, 238, 241, 245, 246, 250, 254, 255, 256
259, 260, 266, 267, 270, 271, 277, 278, 279, 282, 284, 285, 290, 291, 292, 294
296, 299, 312, 314, 316, 319, 323, 327, 330, 334, 335, 337, 338, 344, 353, 354
355, 356, 357, 362, 363, 378, 379
*Nset, nset=bc-set-2, instance=Part-1-1
11, 12, 13, 14, 15, 16, 17, 18, 19, 20, 24, 37, 38, 39, 40, 41
42, 43, 44, 45, 46, 50, 63, 64, 65, 66, 67, 68, 69, 70, 71, 72
76, 155, 231, 373, 463, 487, 498, 515, 552, 611, 615, 623, 640, 676, 681, 704
712, 725, 749, 751, 757, 762, 787, 790, 806, 808, 810
*Elset, elset=bc-set-2, instance=Part-1-1
1, 2, 7, 12, 13, 14, 15, 16, 19, 20, 27, 29, 33, 34, 46, 47
48, 52, 55, 59, 62, 63, 66, 67, 75, 78, 85, 87, 89, 90, 91, 92
97, 103, 104, 114, 115, 117, 118, 121, 123, 130, 131, 134, 137, 140, 141, 143
144, 145, 146, 147, 148, 149, 151, 152, 154, 156, 157, 159, 160, 164, 170, 172
173, 175, 176, 180, 181, 182, 183, 185, 187, 188, 190, 192, 197, 199, 202, 204
209, 213, 214, 215, 221, 223, 224, 226, 227, 229, 234, 237, 242, 247, 249, 257
258, 262, 263, 264, 265, 268, 272, 273, 274, 276, 281, 283, 293, 295, 298, 300
303, 304, 305, 306, 307, 308, 310, 311, 313, 315, 317, 320, 321, 328, 331, 332
333, 345, 347, 349, 350, 351, 352, 360, 361, 364, 365, 366, 367, 368, 369, 370
371, 373, 374, 375, 377
*End Assembly
**
** ELEMENT CONTROLS
**
*Section Controls, name=EC-1, hourglass=ENHANCED
1., 1., 1.
**
** MATERIALS
**
*Material, name=Material-1
*Hyperelastic, n=3, ogden
0.4017, 1.3, 0.00295, 5, 0.00981, -2, 0, 0
0,
** ----------------------------------------------------------------
**
** STEP: Step-1
**
*Step, name=Step-1, nlgeom=YES
*Static
1., 1., 1e-05, 1.
**
** BOUNDARY CONDITIONS
**
** Name: BC-1 Type: Displacement/Rotation
*Boundary
bc-set-1, 1, 1, 3
bc-set-1, 2, 6
** Name: BC-2 Type: Symmetry/Antisymmetry/Encastre
*Boundary
bc-set-2, ENCASTRE
**
** OUTPUT REQUESTS
**
*Restart, write, frequency=0
**
** FIELD OUTPUT: F-Output-1
**
*Output, field, variable=PRESELECT
**
** HISTORY OUTPUT: H-Output-1
**
*Output, history, variable=PRESELECT
*NODE PRINT
U
*EL PRINT, position = centroidal
DG
*EL PRINT, elset = bc-set-1, position = centroidal
S12
*EL PRINT, elset = bc-set-2, position = centroidal
S12
*EL PRINT, position = centroidal
S
*End Step