1

   Abaqus 2021                                  Date 16-Jun-2023   Time 15:26:32
   For use by UNIVERSITY OF MICHIGAN under license from Dassault Systemes or its subsidiary.



                         The Abaqus Software is a product of:

                           Dassault Systemes SIMULIA Corp.
                           1301 Atwood Avenue, Suite 101W
                              Johnston, RI 02919, USA
 


                   The Abaqus Software is available only under license
                   from Dassault Systemes or its subsidiary and may be
                   used or reproduced only in accordance with the terms
                   of such license.
 
                          On machine ME-ESTRADALAB04 
                          you are authorized to run
                          Abaqus/Standard until 31-Jul-2023

                          Your site id is: 200000000004058 


 
                    For assistance or any other information you may
                    obtain contact information for your local office
                    from the world wide web at:

                      http://www.3ds.com/products/simulia/locations/

 
                * * * * * * * * * * * * * * * * * * * * * * * * * * * * * * 
                *                                                         * 
                *                   *****************                     * 
                *                   *  N O T I C E  *                     * 
                *                   *****************                     * 
                *                                                         * 
                *                                                         * 
                *                       Abaqus 2021                       * 
                *                                                         * 
                *          BUILD ID: 2020_03_06-09.50.37 167380           * 
                *                                                         * 
                *                                                         * 
                *  Please make sure you are using                         * 
                *  release Abaqus 2021 manuals                            * 
                *  plus the notes accompanying this release.              * 
                *                                                         * 
                *                                                         * 
                *                                                         * 
                *                                                         * 
                *                                                         * 
                *   This program may not be used for commercial purposes  * 
                *           without payment of a commercial fee.          * 
                *                                                         * 
                * * * * * * * * * * * * * * * * * * * * * * * * * * * * * * 


 



     PROCESSING PART, INSTANCE, AND ASSEMBLY INFORMATION
   *******************************************************


     END PROCESSING PART, INSTANCE, AND ASSEMBLY INFORMATION
   ***********************************************************




     OPTIONS BEING PROCESSED
   ***************************


  *Heading
  *Node
  *Element, type=C3D10H
  *Nset, nset=ASSEMBLY_PART-1-1_SET-1
  *Elset, elset=ASSEMBLY_PART-1-1_SET-1
  *Nset, nset=ASSEMBLY_BC-SET-1
  *Nset, nset=ASSEMBLY_BC-SET-2
  *Nset, nset=ASSEMBLY_RP
  *Elset, elset=ASSEMBLY_RP
  *material, name=MATERIAL-1
  *hyperelastic, n=3, ogden
  *solidsection, elset=ASSEMBLY_PART-1-1_SET-1, controls=EC-1, material=MATERIAL-1
  *sectioncontrols, name=EC-1, hourglass=ENHANCED

 ***WARNING: THE PARAMETER HOURGLASS = ENHANCED ON THE SECTION CONTROLS OPTION 
             IS RELEVANT FOR THESE ELEMENTS: C3D8R, CAX4R, CGAX4R, CPEG4R, 
             CPE4R, CPS4R, M3D4R, S4R, SC8R AND THEIR HYBRID, THERMAL AND 
             PRESSURE COUNTERPARTS WHEREVER APPLICABLE. IT IS ALSO RELEVANT FOR 
             ALL TYPES OF MODIFIED TRIANGULAR AND TETRAHEDRAL ELEMENTS. THIS 
             WARNING CAN BE IGNORED IF THE FEATURE IS APPLIED TO THESE ELEMENT 
             TYPES ONLY.
  *solidsection, elset=ASSEMBLY_PART-1-1_SET-1, controls=EC-1, material=MATERIAL-1
  *boundary
  *boundary
  *boundary
  *boundary
  *output, field, variable=PRESELECT
  *output, history, variable=PRESELECT
  *output, field, variable=PRESELECT
  *output, history, variable=PRESELECT
  *output, field, variable=PRESELECT
  *output, history, variable=PRESELECT
  *Step, name=Step-1, nlgeom=YES
  *output, field, variable=PRESELECT
  *output, history, variable=PRESELECT
  *Step, name=Step-1, nlgeom=YES
  *Step, name=Step-1, nlgeom=YES
  *static
  *boundary
  *boundary
  *output, field, variable=PRESELECT
  *output, history, variable=PRESELECT
  *nodeprint
  *elprint

 ***WARNING: OUTPUT REQUEST DG IS ONLY AVAILABLE FOR *HYPERELASTIC/FOAM AND 
             *USER MATERIAL.
  *endstep
  *Step, name=Step-1, nlgeom=YES
  *static
  *boundary
  *boundary
  *endstep

 ***NOTE: Boundary conditions are specified on inactive dof of 59 nodes. The 
          nodes have been identified in node set WarnNodeBCInactiveDof.


                              E L E M E N T,   N O D E,   A N D   S U R F A C E   M A P S


**NOTE: This section may not include complete information about
        members of sets and surfaces. Use *PREPRINT, MODEL=YES 
        in order to get the set and surface members printed    
        under the following sections:                          
            - E L E M E N T   S E T S                          
            - N O D E   S E T S                                
            - S U R F A C E   D E F I N I T I O N S .          


Assembly name: ASSEMBLY
Number of instances: 1

ASSEMBLY LEVEL
  node sets:
    BC-SET-1:
      instance name: PART-1-1
      number of nodes: 59
      nodes: 
        1 2 3 4 5 6 7 8 9 10 21 27 28 29 30 31 32 33 34 35 36 47 53 54
        55 56 57 58 59 60 61 62 73 243 256 286 299 300 313 336 344 379
        448 465 473 496 538 540 547 580 597 692 727 740 761 771 782 804
        805

    BC-SET-2:
      instance name: PART-1-1
      number of nodes: 59
      nodes: 
        11 12 13 14 15 16 17 18 19 20 24 37 38 39 40 41 42 43 44 45 46
        50 63 64 65 66 67 68 69 70 71 72 76 155 231 373 463 487 498 515
        552 611 615 623 640 676 681 704 712 725 749 751 757 762 787 790
        806 808 810

    RP:
      instance name: PART-1-1
      number of nodes: 810
      nodes: 
        1 2 3 4 5 6 7 8 9 10 11 12 13 14 15 16 17 18 19 20 21 22 23 24
        25 26 27 28 29 30 31 32 33 34 35 36 37 38 39 40 41 42 43 44 45
        46 47 48 49 50 51 52 53 54 55 56 57 58 59 60 61 62 63 64 65 66
        67 68 69 70 71 72 73 74 75 76 77 78 79 80 81 82 83 84 85 86 87
        88 89 90 91 92 93 94 95 96 97 98 99 100 101 102 103 104 105 106
        107 108 109 110 111 112 113 114 115 116 117 118 119 120 121 122
        123 124 125 126 127 128 129 130 131 132 133 134 135 136 137 138
        139 140 141 142 143 144 145 146 147 148 149 150 151 152 153 154
        155 156 157 158 159 160 161 162 163 164 165 166 167 168 169 170
        171 172 173 174 175 176 177 178 179 180 181 182 183 184 185 186
        187 188 189 190 191 192 193 194 195 196 197 198 199 200 201 202
        203 204 205 206 207 208 209 210 211 212 213 214 215 216 217 218
        219 220 221 222 223 224 225 226 227 228 229 230 231 232 233 234
        235 236 237 238 239 240 241 242 243 244 245 246 247 248 249 250
        251 252 253 254 255 256 257 258 259 260 261 262 263 264 265 266
        267 268 269 270 271 272 273 274 275 276 277 278 279 280 281 282
        283 284 285 286 287 288 289 290 291 292 293 294 295 296 297 298
        299 300 301 302 303 304 305 306 307 308 309 310 311 312 313 314
        315 316 317 318 319 320 321 322 323 324 325 326 327 328 329 330
        331 332 333 334 335 336 337 338 339 340 341 342 343 344 345 346
        347 348 349 350 351 352 353 354 355 356 357 358 359 360 361 362
        363 364 365 366 367 368 369 370 371 372 373 374 375 376 377 378
        379 380 381 382 383 384 385 386 387 388 389 390 391 392 393 394
        395 396 397 398 399 400 401 402 403 404 405 406 407 408 409 410
        411 412 413 414 415 416 417 418 419 420 421 422 423 424 425 426
        427 428 429 430 431 432 433 434 435 436 437 438 439 440 441 442
        443 444 445 446 447 448 449 450 451 452 453 454 455 456 457 458
        459 460 461 462 463 464 465 466 467 468 469 470 471 472 473 474
        475 476 477 478 479 480 481 482 483 484 485 486 487 488 489 490
        491 492 493 494 495 496 497 498 499 500 501 502 503 504 505 506
        507 508 509 510 511 512 513 514 515 516 517 518 519 520 521 522
        523 524 525 526 527 528 529 530 531 532 533 534 535 536 537 538
        539 540 541 542 543 544 545 546 547 548 549 550 551 552 553 554
        555 556 557 558 559 560 561 562 563 564 565 566 567 568 569 570
        571 572 573 574 575 576 577 578 579 580 581 582 583 584 585 586
        587 588 589 590 591 592 593 594 595 596 597 598 599 600 601 602
        603 604 605 606 607 608 609 610 611 612 613 614 615 616 617 618
        619 620 621 622 623 624 625 626 627 628 629 630 631 632 633 634
        635 636 637 638 639 640 641 642 643 644 645 646 647 648 649 650
        651 652 653 654 655 656 657 658 659 660 661 662 663 664 665 666
        667 668 669 670 671 672 673 674 675 676 677 678 679 680 681 682
        683 684 685 686 687 688 689 690 691 692 693 694 695 696 697 698
        699 700 701 702 703 704 705 706 707 708 709 710 711 712 713 714
        715 716 717 718 719 720 721 722 723 724 725 726 727 728 729 730
        731 732 733 734 735 736 737 738 739 740 741 742 743 744 745 746
        747 748 749 750 751 752 753 754 755 756 757 758 759 760 761 762
        763 764 765 766 767 768 769 770 771 772 773 774 775 776 777 778
        779 780 781 782 783 784 785 786 787 788 789 790 791 792 793 794
        795 796 797 798 799 800 801 802 803 804 805 806 807 808 809 810

  element sets:
    RP:
      instance name: PART-1-1
      number of elements: 379
      elements: 
        1 2 3 4 5 6 7 8 9 10 11 12 13 14 15 16 17 18 19 20 21 22 23 24
        25 26 27 28 29 30 31 32 33 34 35 36 37 38 39 40 41 42 43 44 45
        46 47 48 49 50 51 52 53 54 55 56 57 58 59 60 61 62 63 64 65 66
        67 68 69 70 71 72 73 74 75 76 77 78 79 80 81 82 83 84 85 86 87
        88 89 90 91 92 93 94 95 96 97 98 99 100 101 102 103 104 105 106
        107 108 109 110 111 112 113 114 115 116 117 118 119 120 121 122
        123 124 125 126 127 128 129 130 131 132 133 134 135 136 137 138
        139 140 141 142 143 144 145 146 147 148 149 150 151 152 153 154
        155 156 157 158 159 160 161 162 163 164 165 166 167 168 169 170
        171 172 173 174 175 176 177 178 179 180 181 182 183 184 185 186
        187 188 189 190 191 192 193 194 195 196 197 198 199 200 201 202
        203 204 205 206 207 208 209 210 211 212 213 214 215 216 217 218
        219 220 221 222 223 224 225 226 227 228 229 230 231 232 233 234
        235 236 237 238 239 240 241 242 243 244 245 246 247 248 249 250
        251 252 253 254 255 256 257 258 259 260 261 262 263 264 265 266
        267 268 269 270 271 272 273 274 275 276 277 278 279 280 281 282
        283 284 285 286 287 288 289 290 291 292 293 294 295 296 297 298
        299 300 301 302 303 304 305 306 307 308 309 310 311 312 313 314
        315 316 317 318 319 320 321 322 323 324 325 326 327 328 329 330
        331 332 333 334 335 336 337 338 339 340 341 342 343 344 345 346
        347 348 349 350 351 352 353 354 355 356 357 358 359 360 361 362
        363 364 365 366 367 368 369 370 371 372 373 374 375 376 377 378
        379

  Surfaces:

INSTANCE LEVEL
  node sets:
    Instance name: PART-1-1
      node set name: SET-1
        number of nodes: 810
        nodes: 
          1 2 3 4 5 6 7 8 9 10 11 12 13 14 15 16 17 18 19 20 21 22 23 24
          25 26 27 28 29 30 31 32 33 34 35 36 37 38 39 40 41 42 43 44 45
          46 47 48 49 50 51 52 53 54 55 56 57 58 59 60 61 62 63 64 65 66
          67 68 69 70 71 72 73 74 75 76 77 78 79 80 81 82 83 84 85 86 87
          88 89 90 91 92 93 94 95 96 97 98 99 100 101 102 103 104 105
          106 107 108 109 110 111 112 113 114 115 116 117 118 119 120
          121 122 123 124 125 126 127 128 129 130 131 132 133 134 135
          136 137 138 139 140 141 142 143 144 145 146 147 148 149 150
          151 152 153 154 155 156 157 158 159 160 161 162 163 164 165
          166 167 168 169 170 171 172 173 174 175 176 177 178 179 180
          181 182 183 184 185 186 187 188 189 190 191 192 193 194 195
          196 197 198 199 200 201 202 203 204 205 206 207 208 209 210
          211 212 213 214 215 216 217 218 219 220 221 222 223 224 225
          226 227 228 229 230 231 232 233 234 235 236 237 238 239 240
          241 242 243 244 245 246 247 248 249 250 251 252 253 254 255
          256 257 258 259 260 261 262 263 264 265 266 267 268 269 270
          271 272 273 274 275 276 277 278 279 280 281 282 283 284 285
          286 287 288 289 290 291 292 293 294 295 296 297 298 299 300
          301 302 303 304 305 306 307 308 309 310 311 312 313 314 315
          316 317 318 319 320 321 322 323 324 325 326 327 328 329 330
          331 332 333 334 335 336 337 338 339 340 341 342 343 344 345
          346 347 348 349 350 351 352 353 354 355 356 357 358 359 360
          361 362 363 364 365 366 367 368 369 370 371 372 373 374 375
          376 377 378 379 380 381 382 383 384 385 386 387 388 389 390
          391 392 393 394 395 396 397 398 399 400 401 402 403 404 405
          406 407 408 409 410 411 412 413 414 415 416 417 418 419 420
          421 422 423 424 425 426 427 428 429 430 431 432 433 434 435
          436 437 438 439 440 441 442 443 444 445 446 447 448 449 450
          451 452 453 454 455 456 457 458 459 460 461 462 463 464 465
          466 467 468 469 470 471 472 473 474 475 476 477 478 479 480
          481 482 483 484 485 486 487 488 489 490 491 492 493 494 495
          496 497 498 499 500 501 502 503 504 505 506 507 508 509 510
          511 512 513 514 515 516 517 518 519 520 521 522 523 524 525
          526 527 528 529 530 531 532 533 534 535 536 537 538 539 540
          541 542 543 544 545 546 547 548 549 550 551 552 553 554 555
          556 557 558 559 560 561 562 563 564 565 566 567 568 569 570
          571 572 573 574 575 576 577 578 579 580 581 582 583 584 585
          586 587 588 589 590 591 592 593 594 595 596 597 598 599 600
          601 602 603 604 605 606 607 608 609 610 611 612 613 614 615
          616 617 618 619 620 621 622 623 624 625 626 627 628 629 630
          631 632 633 634 635 636 637 638 639 640 641 642 643 644 645
          646 647 648 649 650 651 652 653 654 655 656 657 658 659 660
          661 662 663 664 665 666 667 668 669 670 671 672 673 674 675
          676 677 678 679 680 681 682 683 684 685 686 687 688 689 690
          691 692 693 694 695 696 697 698 699 700 701 702 703 704 705
          706 707 708 709 710 711 712 713 714 715 716 717 718 719 720
          721 722 723 724 725 726 727 728 729 730 731 732 733 734 735
          736 737 738 739 740 741 742 743 744 745 746 747 748 749 750
          751 752 753 754 755 756 757 758 759 760 761 762 763 764 765
          766 767 768 769 770 771 772 773 774 775 776 777 778 779 780
          781 782 783 784 785 786 787 788 789 790 791 792 793 794 795
          796 797 798 799 800 801 802 803 804 805 806 807 808 809 810

  element sets:
    Instance name: PART-1-1
      element set name: SET-1
        number of elements: 379
        elements: 
          1 2 3 4 5 6 7 8 9 10 11 12 13 14 15 16 17 18 19 20 21 22 23 24
          25 26 27 28 29 30 31 32 33 34 35 36 37 38 39 40 41 42 43 44 45
          46 47 48 49 50 51 52 53 54 55 56 57 58 59 60 61 62 63 64 65 66
          67 68 69 70 71 72 73 74 75 76 77 78 79 80 81 82 83 84 85 86 87
          88 89 90 91 92 93 94 95 96 97 98 99 100 101 102 103 104 105
          106 107 108 109 110 111 112 113 114 115 116 117 118 119 120
          121 122 123 124 125 126 127 128 129 130 131 132 133 134 135
          136 137 138 139 140 141 142 143 144 145 146 147 148 149 150
          151 152 153 154 155 156 157 158 159 160 161 162 163 164 165
          166 167 168 169 170 171 172 173 174 175 176 177 178 179 180
          181 182 183 184 185 186 187 188 189 190 191 192 193 194 195
          196 197 198 199 200 201 202 203 204 205 206 207 208 209 210
          211 212 213 214 215 216 217 218 219 220 221 222 223 224 225
          226 227 228 229 230 231 232 233 234 235 236 237 238 239 240
          241 242 243 244 245 246 247 248 249 250 251 252 253 254 255
          256 257 258 259 260 261 262 263 264 265 266 267 268 269 270
          271 272 273 274 275 276 277 278 279 280 281 282 283 284 285
          286 287 288 289 290 291 292 293 294 295 296 297 298 299 300
          301 302 303 304 305 306 307 308 309 310 311 312 313 314 315
          316 317 318 319 320 321 322 323 324 325 326 327 328 329 330
          331 332 333 334 335 336 337 338 339 340 341 342 343 344 345
          346 347 348 349 350 351 352 353 354 355 356 357 358 359 360
          361 362 363 364 365 366 367 368 369 370 371 372 373 374 375
          376 377 378 379

  Surfaces:

GLOBAL TO LOCAL NODE AND ELEMENT MAPS
  Global     Local      
  node       node       
  number     number     
                        Instance name                                   
   1          1         PART-1-1                                        
   2          2         PART-1-1                                        
   3          3         PART-1-1                                        
   4          4         PART-1-1                                        
   5          5         PART-1-1                                        
   6          6         PART-1-1                                        
   7          7         PART-1-1                                        
   8          8         PART-1-1                                        
   9          9         PART-1-1                                        
   10         10        PART-1-1                                        
   11         11        PART-1-1                                        
   12         12        PART-1-1                                        
   13         13        PART-1-1                                        
   14         14        PART-1-1                                        
   15         15        PART-1-1                                        
   16         16        PART-1-1                                        
   17         17        PART-1-1                                        
   18         18        PART-1-1                                        
   19         19        PART-1-1                                        
   20         20        PART-1-1                                        
   21         21        PART-1-1                                        
   22         22        PART-1-1                                        
   23         23        PART-1-1                                        
   24         24        PART-1-1                                        
   25         25        PART-1-1                                        
   26         26        PART-1-1                                        
   27         27        PART-1-1                                        
   28         28        PART-1-1                                        
   29         29        PART-1-1                                        
   30         30        PART-1-1                                        
   31         31        PART-1-1                                        
   32         32        PART-1-1                                        
   33         33        PART-1-1                                        
   34         34        PART-1-1                                        
   35         35        PART-1-1                                        
   36         36        PART-1-1                                        
   37         37        PART-1-1                                        
   38         38        PART-1-1                                        
   39         39        PART-1-1                                        
   40         40        PART-1-1                                        
   41         41        PART-1-1                                        
   42         42        PART-1-1                                        
   43         43        PART-1-1                                        
   44         44        PART-1-1                                        
   45         45        PART-1-1                                        
   46         46        PART-1-1                                        
   47         47        PART-1-1                                        
   48         48        PART-1-1                                        
   49         49        PART-1-1                                        
   50         50        PART-1-1                                        
   51         51        PART-1-1                                        
   52         52        PART-1-1                                        
   53         53        PART-1-1                                        
   54         54        PART-1-1                                        
   55         55        PART-1-1                                        
   56         56        PART-1-1                                        
   57         57        PART-1-1                                        
   58         58        PART-1-1                                        
   59         59        PART-1-1                                        
   60         60        PART-1-1                                        
   61         61        PART-1-1                                        
   62         62        PART-1-1                                        
   63         63        PART-1-1                                        
   64         64        PART-1-1                                        
   65         65        PART-1-1                                        
   66         66        PART-1-1                                        
   67         67        PART-1-1                                        
   68         68        PART-1-1                                        
   69         69        PART-1-1                                        
   70         70        PART-1-1                                        
   71         71        PART-1-1                                        
   72         72        PART-1-1                                        
   73         73        PART-1-1                                        
   74         74        PART-1-1                                        
   75         75        PART-1-1                                        
   76         76        PART-1-1                                        
   77         77        PART-1-1                                        
   78         78        PART-1-1                                        
   79         79        PART-1-1                                        
   80         80        PART-1-1                                        
   81         81        PART-1-1                                        
   82         82        PART-1-1                                        
   83         83        PART-1-1                                        
   84         84        PART-1-1                                        
   85         85        PART-1-1                                        
   86         86        PART-1-1                                        
   87         87        PART-1-1                                        
   88         88        PART-1-1                                        
   89         89        PART-1-1                                        
   90         90        PART-1-1                                        
   91         91        PART-1-1                                        
   92         92        PART-1-1                                        
   93         93        PART-1-1                                        
   94         94        PART-1-1                                        
   95         95        PART-1-1                                        
   96         96        PART-1-1                                        
   97         97        PART-1-1                                        
   98         98        PART-1-1                                        
   99         99        PART-1-1                                        
   100        100       PART-1-1                                        
   101        101       PART-1-1                                        
   102        102       PART-1-1                                        
   103        103       PART-1-1                                        
   104        104       PART-1-1                                        
   105        105       PART-1-1                                        
   106        106       PART-1-1                                        
   107        107       PART-1-1                                        
   108        108       PART-1-1                                        
   109        109       PART-1-1                                        
   110        110       PART-1-1                                        
   111        111       PART-1-1                                        
   112        112       PART-1-1                                        
   113        113       PART-1-1                                        
   114        114       PART-1-1                                        
   115        115       PART-1-1                                        
   116        116       PART-1-1                                        
   117        117       PART-1-1                                        
   118        118       PART-1-1                                        
   119        119       PART-1-1                                        
   120        120       PART-1-1                                        
   121        121       PART-1-1                                        
   122        122       PART-1-1                                        
   123        123       PART-1-1                                        
   124        124       PART-1-1                                        
   125        125       PART-1-1                                        
   126        126       PART-1-1                                        
   127        127       PART-1-1                                        
   128        128       PART-1-1                                        
   129        129       PART-1-1                                        
   130        130       PART-1-1                                        
   131        131       PART-1-1                                        
   132        132       PART-1-1                                        
   133        133       PART-1-1                                        
   134        134       PART-1-1                                        
   135        135       PART-1-1                                        
   136        136       PART-1-1                                        
   137        137       PART-1-1                                        
   138        138       PART-1-1                                        
   139        139       PART-1-1                                        
   140        140       PART-1-1                                        
   141        141       PART-1-1                                        
   142        142       PART-1-1                                        
   143        143       PART-1-1                                        
   144        144       PART-1-1                                        
   145        145       PART-1-1                                        
   146        146       PART-1-1                                        
   147        147       PART-1-1                                        
   148        148       PART-1-1                                        
   149        149       PART-1-1                                        
   150        150       PART-1-1                                        
   151        151       PART-1-1                                        
   152        152       PART-1-1                                        
   153        153       PART-1-1                                        
   154        154       PART-1-1                                        
   155        155       PART-1-1                                        
   156        156       PART-1-1                                        
   157        157       PART-1-1                                        
   158        158       PART-1-1                                        
   159        159       PART-1-1                                        
   160        160       PART-1-1                                        
   161        161       PART-1-1                                        
   162        162       PART-1-1                                        
   163        163       PART-1-1                                        
   164        164       PART-1-1                                        
   165        165       PART-1-1                                        
   166        166       PART-1-1                                        
   167        167       PART-1-1                                        
   168        168       PART-1-1                                        
   169        169       PART-1-1                                        
   170        170       PART-1-1                                        
   171        171       PART-1-1                                        
   172        172       PART-1-1                                        
   173        173       PART-1-1                                        
   174        174       PART-1-1                                        
   175        175       PART-1-1                                        
   176        176       PART-1-1                                        
   177        177       PART-1-1                                        
   178        178       PART-1-1                                        
   179        179       PART-1-1                                        
   180        180       PART-1-1                                        
   181        181       PART-1-1                                        
   182        182       PART-1-1                                        
   183        183       PART-1-1                                        
   184        184       PART-1-1                                        
   185        185       PART-1-1                                        
   186        186       PART-1-1                                        
   187        187       PART-1-1                                        
   188        188       PART-1-1                                        
   189        189       PART-1-1                                        
   190        190       PART-1-1                                        
   191        191       PART-1-1                                        
   192        192       PART-1-1                                        
   193        193       PART-1-1                                        
   194        194       PART-1-1                                        
   195        195       PART-1-1                                        
   196        196       PART-1-1                                        
   197        197       PART-1-1                                        
   198        198       PART-1-1                                        
   199        199       PART-1-1                                        
   200        200       PART-1-1                                        
   201        201       PART-1-1                                        
   202        202       PART-1-1                                        
   203        203       PART-1-1                                        
   204        204       PART-1-1                                        
   205        205       PART-1-1                                        
   206        206       PART-1-1                                        
   207        207       PART-1-1                                        
   208        208       PART-1-1                                        
   209        209       PART-1-1                                        
   210        210       PART-1-1                                        
   211        211       PART-1-1                                        
   212        212       PART-1-1                                        
   213        213       PART-1-1                                        
   214        214       PART-1-1                                        
   215        215       PART-1-1                                        
   216        216       PART-1-1                                        
   217        217       PART-1-1                                        
   218        218       PART-1-1                                        
   219        219       PART-1-1                                        
   220        220       PART-1-1                                        
   221        221       PART-1-1                                        
   222        222       PART-1-1                                        
   223        223       PART-1-1                                        
   224        224       PART-1-1                                        
   225        225       PART-1-1                                        
   226        226       PART-1-1                                        
   227        227       PART-1-1                                        
   228        228       PART-1-1                                        
   229        229       PART-1-1                                        
   230        230       PART-1-1                                        
   231        231       PART-1-1                                        
   232        232       PART-1-1                                        
   233        233       PART-1-1                                        
   234        234       PART-1-1                                        
   235        235       PART-1-1                                        
   236        236       PART-1-1                                        
   237        237       PART-1-1                                        
   238        238       PART-1-1                                        
   239        239       PART-1-1                                        
   240        240       PART-1-1                                        
   241        241       PART-1-1                                        
   242        242       PART-1-1                                        
   243        243       PART-1-1                                        
   244        244       PART-1-1                                        
   245        245       PART-1-1                                        
   246        246       PART-1-1                                        
   247        247       PART-1-1                                        
   248        248       PART-1-1                                        
   249        249       PART-1-1                                        
   250        250       PART-1-1                                        
   251        251       PART-1-1                                        
   252        252       PART-1-1                                        
   253        253       PART-1-1                                        
   254        254       PART-1-1                                        
   255        255       PART-1-1                                        
   256        256       PART-1-1                                        
   257        257       PART-1-1                                        
   258        258       PART-1-1                                        
   259        259       PART-1-1                                        
   260        260       PART-1-1                                        
   261        261       PART-1-1                                        
   262        262       PART-1-1                                        
   263        263       PART-1-1                                        
   264        264       PART-1-1                                        
   265        265       PART-1-1                                        
   266        266       PART-1-1                                        
   267        267       PART-1-1                                        
   268        268       PART-1-1                                        
   269        269       PART-1-1                                        
   270        270       PART-1-1                                        
   271        271       PART-1-1                                        
   272        272       PART-1-1                                        
   273        273       PART-1-1                                        
   274        274       PART-1-1                                        
   275        275       PART-1-1                                        
   276        276       PART-1-1                                        
   277        277       PART-1-1                                        
   278        278       PART-1-1                                        
   279        279       PART-1-1                                        
   280        280       PART-1-1                                        
   281        281       PART-1-1                                        
   282        282       PART-1-1                                        
   283        283       PART-1-1                                        
   284        284       PART-1-1                                        
   285        285       PART-1-1                                        
   286        286       PART-1-1                                        
   287        287       PART-1-1                                        
   288        288       PART-1-1                                        
   289        289       PART-1-1                                        
   290        290       PART-1-1                                        
   291        291       PART-1-1                                        
   292        292       PART-1-1                                        
   293        293       PART-1-1                                        
   294        294       PART-1-1                                        
   295        295       PART-1-1                                        
   296        296       PART-1-1                                        
   297        297       PART-1-1                                        
   298        298       PART-1-1                                        
   299        299       PART-1-1                                        
   300        300       PART-1-1                                        
   301        301       PART-1-1                                        
   302        302       PART-1-1                                        
   303        303       PART-1-1                                        
   304        304       PART-1-1                                        
   305        305       PART-1-1                                        
   306        306       PART-1-1                                        
   307        307       PART-1-1                                        
   308        308       PART-1-1                                        
   309        309       PART-1-1                                        
   310        310       PART-1-1                                        
   311        311       PART-1-1                                        
   312        312       PART-1-1                                        
   313        313       PART-1-1                                        
   314        314       PART-1-1                                        
   315        315       PART-1-1                                        
   316        316       PART-1-1                                        
   317        317       PART-1-1                                        
   318        318       PART-1-1                                        
   319        319       PART-1-1                                        
   320        320       PART-1-1                                        
   321        321       PART-1-1                                        
   322        322       PART-1-1                                        
   323        323       PART-1-1                                        
   324        324       PART-1-1                                        
   325        325       PART-1-1                                        
   326        326       PART-1-1                                        
   327        327       PART-1-1                                        
   328        328       PART-1-1                                        
   329        329       PART-1-1                                        
   330        330       PART-1-1                                        
   331        331       PART-1-1                                        
   332        332       PART-1-1                                        
   333        333       PART-1-1                                        
   334        334       PART-1-1                                        
   335        335       PART-1-1                                        
   336        336       PART-1-1                                        
   337        337       PART-1-1                                        
   338        338       PART-1-1                                        
   339        339       PART-1-1                                        
   340        340       PART-1-1                                        
   341        341       PART-1-1                                        
   342        342       PART-1-1                                        
   343        343       PART-1-1                                        
   344        344       PART-1-1                                        
   345        345       PART-1-1                                        
   346        346       PART-1-1                                        
   347        347       PART-1-1                                        
   348        348       PART-1-1                                        
   349        349       PART-1-1                                        
   350        350       PART-1-1                                        
   351        351       PART-1-1                                        
   352        352       PART-1-1                                        
   353        353       PART-1-1                                        
   354        354       PART-1-1                                        
   355        355       PART-1-1                                        
   356        356       PART-1-1                                        
   357        357       PART-1-1                                        
   358        358       PART-1-1                                        
   359        359       PART-1-1                                        
   360        360       PART-1-1                                        
   361        361       PART-1-1                                        
   362        362       PART-1-1                                        
   363        363       PART-1-1                                        
   364        364       PART-1-1                                        
   365        365       PART-1-1                                        
   366        366       PART-1-1                                        
   367        367       PART-1-1                                        
   368        368       PART-1-1                                        
   369        369       PART-1-1                                        
   370        370       PART-1-1                                        
   371        371       PART-1-1                                        
   372        372       PART-1-1                                        
   373        373       PART-1-1                                        
   374        374       PART-1-1                                        
   375        375       PART-1-1                                        
   376        376       PART-1-1                                        
   377        377       PART-1-1                                        
   378        378       PART-1-1                                        
   379        379       PART-1-1                                        
   380        380       PART-1-1                                        
   381        381       PART-1-1                                        
   382        382       PART-1-1                                        
   383        383       PART-1-1                                        
   384        384       PART-1-1                                        
   385        385       PART-1-1                                        
   386        386       PART-1-1                                        
   387        387       PART-1-1                                        
   388        388       PART-1-1                                        
   389        389       PART-1-1                                        
   390        390       PART-1-1                                        
   391        391       PART-1-1                                        
   392        392       PART-1-1                                        
   393        393       PART-1-1                                        
   394        394       PART-1-1                                        
   395        395       PART-1-1                                        
   396        396       PART-1-1                                        
   397        397       PART-1-1                                        
   398        398       PART-1-1                                        
   399        399       PART-1-1                                        
   400        400       PART-1-1                                        
   401        401       PART-1-1                                        
   402        402       PART-1-1                                        
   403        403       PART-1-1                                        
   404        404       PART-1-1                                        
   405        405       PART-1-1                                        
   406        406       PART-1-1                                        
   407        407       PART-1-1                                        
   408        408       PART-1-1                                        
   409        409       PART-1-1                                        
   410        410       PART-1-1                                        
   411        411       PART-1-1                                        
   412        412       PART-1-1                                        
   413        413       PART-1-1                                        
   414        414       PART-1-1                                        
   415        415       PART-1-1                                        
   416        416       PART-1-1                                        
   417        417       PART-1-1                                        
   418        418       PART-1-1                                        
   419        419       PART-1-1                                        
   420        420       PART-1-1                                        
   421        421       PART-1-1                                        
   422        422       PART-1-1                                        
   423        423       PART-1-1                                        
   424        424       PART-1-1                                        
   425        425       PART-1-1                                        
   426        426       PART-1-1                                        
   427        427       PART-1-1                                        
   428        428       PART-1-1                                        
   429        429       PART-1-1                                        
   430        430       PART-1-1                                        
   431        431       PART-1-1                                        
   432        432       PART-1-1                                        
   433        433       PART-1-1                                        
   434        434       PART-1-1                                        
   435        435       PART-1-1                                        
   436        436       PART-1-1                                        
   437        437       PART-1-1                                        
   438        438       PART-1-1                                        
   439        439       PART-1-1                                        
   440        440       PART-1-1                                        
   441        441       PART-1-1                                        
   442        442       PART-1-1                                        
   443        443       PART-1-1                                        
   444        444       PART-1-1                                        
   445        445       PART-1-1                                        
   446        446       PART-1-1                                        
   447        447       PART-1-1                                        
   448        448       PART-1-1                                        
   449        449       PART-1-1                                        
   450        450       PART-1-1                                        
   451        451       PART-1-1                                        
   452        452       PART-1-1                                        
   453        453       PART-1-1                                        
   454        454       PART-1-1                                        
   455        455       PART-1-1                                        
   456        456       PART-1-1                                        
   457        457       PART-1-1                                        
   458        458       PART-1-1                                        
   459        459       PART-1-1                                        
   460        460       PART-1-1                                        
   461        461       PART-1-1                                        
   462        462       PART-1-1                                        
   463        463       PART-1-1                                        
   464        464       PART-1-1                                        
   465        465       PART-1-1                                        
   466        466       PART-1-1                                        
   467        467       PART-1-1                                        
   468        468       PART-1-1                                        
   469        469       PART-1-1                                        
   470        470       PART-1-1                                        
   471        471       PART-1-1                                        
   472        472       PART-1-1                                        
   473        473       PART-1-1                                        
   474        474       PART-1-1                                        
   475        475       PART-1-1                                        
   476        476       PART-1-1                                        
   477        477       PART-1-1                                        
   478        478       PART-1-1                                        
   479        479       PART-1-1                                        
   480        480       PART-1-1                                        
   481        481       PART-1-1                                        
   482        482       PART-1-1                                        
   483        483       PART-1-1                                        
   484        484       PART-1-1                                        
   485        485       PART-1-1                                        
   486        486       PART-1-1                                        
   487        487       PART-1-1                                        
   488        488       PART-1-1                                        
   489        489       PART-1-1                                        
   490        490       PART-1-1                                        
   491        491       PART-1-1                                        
   492        492       PART-1-1                                        
   493        493       PART-1-1                                        
   494        494       PART-1-1                                        
   495        495       PART-1-1                                        
   496        496       PART-1-1                                        
   497        497       PART-1-1                                        
   498        498       PART-1-1                                        
   499        499       PART-1-1                                        
   500        500       PART-1-1                                        
   501        501       PART-1-1                                        
   502        502       PART-1-1                                        
   503        503       PART-1-1                                        
   504        504       PART-1-1                                        
   505        505       PART-1-1                                        
   506        506       PART-1-1                                        
   507        507       PART-1-1                                        
   508        508       PART-1-1                                        
   509        509       PART-1-1                                        
   510        510       PART-1-1                                        
   511        511       PART-1-1                                        
   512        512       PART-1-1                                        
   513        513       PART-1-1                                        
   514        514       PART-1-1                                        
   515        515       PART-1-1                                        
   516        516       PART-1-1                                        
   517        517       PART-1-1                                        
   518        518       PART-1-1                                        
   519        519       PART-1-1                                        
   520        520       PART-1-1                                        
   521        521       PART-1-1                                        
   522        522       PART-1-1                                        
   523        523       PART-1-1                                        
   524        524       PART-1-1                                        
   525        525       PART-1-1                                        
   526        526       PART-1-1                                        
   527        527       PART-1-1                                        
   528        528       PART-1-1                                        
   529        529       PART-1-1                                        
   530        530       PART-1-1                                        
   531        531       PART-1-1                                        
   532        532       PART-1-1                                        
   533        533       PART-1-1                                        
   534        534       PART-1-1                                        
   535        535       PART-1-1                                        
   536        536       PART-1-1                                        
   537        537       PART-1-1                                        
   538        538       PART-1-1                                        
   539        539       PART-1-1                                        
   540        540       PART-1-1                                        
   541        541       PART-1-1                                        
   542        542       PART-1-1                                        
   543        543       PART-1-1                                        
   544        544       PART-1-1                                        
   545        545       PART-1-1                                        
   546        546       PART-1-1                                        
   547        547       PART-1-1                                        
   548        548       PART-1-1                                        
   549        549       PART-1-1                                        
   550        550       PART-1-1                                        
   551        551       PART-1-1                                        
   552        552       PART-1-1                                        
   553        553       PART-1-1                                        
   554        554       PART-1-1                                        
   555        555       PART-1-1                                        
   556        556       PART-1-1                                        
   557        557       PART-1-1                                        
   558        558       PART-1-1                                        
   559        559       PART-1-1                                        
   560        560       PART-1-1                                        
   561        561       PART-1-1                                        
   562        562       PART-1-1                                        
   563        563       PART-1-1                                        
   564        564       PART-1-1                                        
   565        565       PART-1-1                                        
   566        566       PART-1-1                                        
   567        567       PART-1-1                                        
   568        568       PART-1-1                                        
   569        569       PART-1-1                                        
   570        570       PART-1-1                                        
   571        571       PART-1-1                                        
   572        572       PART-1-1                                        
   573        573       PART-1-1                                        
   574        574       PART-1-1                                        
   575        575       PART-1-1                                        
   576        576       PART-1-1                                        
   577        577       PART-1-1                                        
   578        578       PART-1-1                                        
   579        579       PART-1-1                                        
   580        580       PART-1-1                                        
   581        581       PART-1-1                                        
   582        582       PART-1-1                                        
   583        583       PART-1-1                                        
   584        584       PART-1-1                                        
   585        585       PART-1-1                                        
   586        586       PART-1-1                                        
   587        587       PART-1-1                                        
   588        588       PART-1-1                                        
   589        589       PART-1-1                                        
   590        590       PART-1-1                                        
   591        591       PART-1-1                                        
   592        592       PART-1-1                                        
   593        593       PART-1-1                                        
   594        594       PART-1-1                                        
   595        595       PART-1-1                                        
   596        596       PART-1-1                                        
   597        597       PART-1-1                                        
   598        598       PART-1-1                                        
   599        599       PART-1-1                                        
   600        600       PART-1-1                                        
   601        601       PART-1-1                                        
   602        602       PART-1-1                                        
   603        603       PART-1-1                                        
   604        604       PART-1-1                                        
   605        605       PART-1-1                                        
   606        606       PART-1-1                                        
   607        607       PART-1-1                                        
   608        608       PART-1-1                                        
   609        609       PART-1-1                                        
   610        610       PART-1-1                                        
   611        611       PART-1-1                                        
   612        612       PART-1-1                                        
   613        613       PART-1-1                                        
   614        614       PART-1-1                                        
   615        615       PART-1-1                                        
   616        616       PART-1-1                                        
   617        617       PART-1-1                                        
   618        618       PART-1-1                                        
   619        619       PART-1-1                                        
   620        620       PART-1-1                                        
   621        621       PART-1-1                                        
   622        622       PART-1-1                                        
   623        623       PART-1-1                                        
   624        624       PART-1-1                                        
   625        625       PART-1-1                                        
   626        626       PART-1-1                                        
   627        627       PART-1-1                                        
   628        628       PART-1-1                                        
   629        629       PART-1-1                                        
   630        630       PART-1-1                                        
   631        631       PART-1-1                                        
   632        632       PART-1-1                                        
   633        633       PART-1-1                                        
   634        634       PART-1-1                                        
   635        635       PART-1-1                                        
   636        636       PART-1-1                                        
   637        637       PART-1-1                                        
   638        638       PART-1-1                                        
   639        639       PART-1-1                                        
   640        640       PART-1-1                                        
   641        641       PART-1-1                                        
   642        642       PART-1-1                                        
   643        643       PART-1-1                                        
   644        644       PART-1-1                                        
   645        645       PART-1-1                                        
   646        646       PART-1-1                                        
   647        647       PART-1-1                                        
   648        648       PART-1-1                                        
   649        649       PART-1-1                                        
   650        650       PART-1-1                                        
   651        651       PART-1-1                                        
   652        652       PART-1-1                                        
   653        653       PART-1-1                                        
   654        654       PART-1-1                                        
   655        655       PART-1-1                                        
   656        656       PART-1-1                                        
   657        657       PART-1-1                                        
   658        658       PART-1-1                                        
   659        659       PART-1-1                                        
   660        660       PART-1-1                                        
   661        661       PART-1-1                                        
   662        662       PART-1-1                                        
   663        663       PART-1-1                                        
   664        664       PART-1-1                                        
   665        665       PART-1-1                                        
   666        666       PART-1-1                                        
   667        667       PART-1-1                                        
   668        668       PART-1-1                                        
   669        669       PART-1-1                                        
   670        670       PART-1-1                                        
   671        671       PART-1-1                                        
   672        672       PART-1-1                                        
   673        673       PART-1-1                                        
   674        674       PART-1-1                                        
   675        675       PART-1-1                                        
   676        676       PART-1-1                                        
   677        677       PART-1-1                                        
   678        678       PART-1-1                                        
   679        679       PART-1-1                                        
   680        680       PART-1-1                                        
   681        681       PART-1-1                                        
   682        682       PART-1-1                                        
   683        683       PART-1-1                                        
   684        684       PART-1-1                                        
   685        685       PART-1-1                                        
   686        686       PART-1-1                                        
   687        687       PART-1-1                                        
   688        688       PART-1-1                                        
   689        689       PART-1-1                                        
   690        690       PART-1-1                                        
   691        691       PART-1-1                                        
   692        692       PART-1-1                                        
   693        693       PART-1-1                                        
   694        694       PART-1-1                                        
   695        695       PART-1-1                                        
   696        696       PART-1-1                                        
   697        697       PART-1-1                                        
   698        698       PART-1-1                                        
   699        699       PART-1-1                                        
   700        700       PART-1-1                                        
   701        701       PART-1-1                                        
   702        702       PART-1-1                                        
   703        703       PART-1-1                                        
   704        704       PART-1-1                                        
   705        705       PART-1-1                                        
   706        706       PART-1-1                                        
   707        707       PART-1-1                                        
   708        708       PART-1-1                                        
   709        709       PART-1-1                                        
   710        710       PART-1-1                                        
   711        711       PART-1-1                                        
   712        712       PART-1-1                                        
   713        713       PART-1-1                                        
   714        714       PART-1-1                                        
   715        715       PART-1-1                                        
   716        716       PART-1-1                                        
   717        717       PART-1-1                                        
   718        718       PART-1-1                                        
   719        719       PART-1-1                                        
   720        720       PART-1-1                                        
   721        721       PART-1-1                                        
   722        722       PART-1-1                                        
   723        723       PART-1-1                                        
   724        724       PART-1-1                                        
   725        725       PART-1-1                                        
   726        726       PART-1-1                                        
   727        727       PART-1-1                                        
   728        728       PART-1-1                                        
   729        729       PART-1-1                                        
   730        730       PART-1-1                                        
   731        731       PART-1-1                                        
   732        732       PART-1-1                                        
   733        733       PART-1-1                                        
   734        734       PART-1-1                                        
   735        735       PART-1-1                                        
   736        736       PART-1-1                                        
   737        737       PART-1-1                                        
   738        738       PART-1-1                                        
   739        739       PART-1-1                                        
   740        740       PART-1-1                                        
   741        741       PART-1-1                                        
   742        742       PART-1-1                                        
   743        743       PART-1-1                                        
   744        744       PART-1-1                                        
   745        745       PART-1-1                                        
   746        746       PART-1-1                                        
   747        747       PART-1-1                                        
   748        748       PART-1-1                                        
   749        749       PART-1-1                                        
   750        750       PART-1-1                                        
   751        751       PART-1-1                                        
   752        752       PART-1-1                                        
   753        753       PART-1-1                                        
   754        754       PART-1-1                                        
   755        755       PART-1-1                                        
   756        756       PART-1-1                                        
   757        757       PART-1-1                                        
   758        758       PART-1-1                                        
   759        759       PART-1-1                                        
   760        760       PART-1-1                                        
   761        761       PART-1-1                                        
   762        762       PART-1-1                                        
   763        763       PART-1-1                                        
   764        764       PART-1-1                                        
   765        765       PART-1-1                                        
   766        766       PART-1-1                                        
   767        767       PART-1-1                                        
   768        768       PART-1-1                                        
   769        769       PART-1-1                                        
   770        770       PART-1-1                                        
   771        771       PART-1-1                                        
   772        772       PART-1-1                                        
   773        773       PART-1-1                                        
   774        774       PART-1-1                                        
   775        775       PART-1-1                                        
   776        776       PART-1-1                                        
   777        777       PART-1-1                                        
   778        778       PART-1-1                                        
   779        779       PART-1-1                                        
   780        780       PART-1-1                                        
   781        781       PART-1-1                                        
   782        782       PART-1-1                                        
   783        783       PART-1-1                                        
   784        784       PART-1-1                                        
   785        785       PART-1-1                                        
   786        786       PART-1-1                                        
   787        787       PART-1-1                                        
   788        788       PART-1-1                                        
   789        789       PART-1-1                                        
   790        790       PART-1-1                                        
   791        791       PART-1-1                                        
   792        792       PART-1-1                                        
   793        793       PART-1-1                                        
   794        794       PART-1-1                                        
   795        795       PART-1-1                                        
   796        796       PART-1-1                                        
   797        797       PART-1-1                                        
   798        798       PART-1-1                                        
   799        799       PART-1-1                                        
   800        800       PART-1-1                                        
   801        801       PART-1-1                                        
   802        802       PART-1-1                                        
   803        803       PART-1-1                                        
   804        804       PART-1-1                                        
   805        805       PART-1-1                                        
   806        806       PART-1-1                                        
   807        807       PART-1-1                                        
   808        808       PART-1-1                                        
   809        809       PART-1-1                                        
   810        810       PART-1-1                                        

  Global     Local      
  element    element    
  number     number     
                        Instance name                                   
   1          1         PART-1-1                                        
   2          2         PART-1-1                                        
   3          3         PART-1-1                                        
   4          4         PART-1-1                                        
   5          5         PART-1-1                                        
   6          6         PART-1-1                                        
   7          7         PART-1-1                                        
   8          8         PART-1-1                                        
   9          9         PART-1-1                                        
   10         10        PART-1-1                                        
   11         11        PART-1-1                                        
   12         12        PART-1-1                                        
   13         13        PART-1-1                                        
   14         14        PART-1-1                                        
   15         15        PART-1-1                                        
   16         16        PART-1-1                                        
   17         17        PART-1-1                                        
   18         18        PART-1-1                                        
   19         19        PART-1-1                                        
   20         20        PART-1-1                                        
   21         21        PART-1-1                                        
   22         22        PART-1-1                                        
   23         23        PART-1-1                                        
   24         24        PART-1-1                                        
   25         25        PART-1-1                                        
   26         26        PART-1-1                                        
   27         27        PART-1-1                                        
   28         28        PART-1-1                                        
   29         29        PART-1-1                                        
   30         30        PART-1-1                                        
   31         31        PART-1-1                                        
   32         32        PART-1-1                                        
   33         33        PART-1-1                                        
   34         34        PART-1-1                                        
   35         35        PART-1-1                                        
   36         36        PART-1-1                                        
   37         37        PART-1-1                                        
   38         38        PART-1-1                                        
   39         39        PART-1-1                                        
   40         40        PART-1-1                                        
   41         41        PART-1-1                                        
   42         42        PART-1-1                                        
   43         43        PART-1-1                                        
[...]
        471      1.8023316E+00 -7.8525288E-02 -4.8634260E-02
        472      2.8899788E+00 -2.3771080E-01 -1.2046294E-02
        473      3.0000000E+00  0.0000000E+00  0.0000000E+00
        474      2.5295800E+00 -1.6672350E-01  5.9106069E-03
        475      2.4850744E+00 -1.8574064E-01  1.0034493E-01
        476      2.5091708E+00 -3.5683517E-01  7.7176976E-02
        477      2.8877937E+00 -2.2228483E-01 -7.7463702E-03
        478      2.8647383E+00 -2.5321057E-01  7.3509581E-03
        479      1.5199615E+00 -1.6584115E-02  2.4154872E-02
        480      1.5352752E+00  5.2963282E-02  8.6526653E-03
        481      2.5381149E-01 -2.6536792E-01 -7.9432856E-02
        482      5.0674324E-01 -2.3681668E-01 -1.6872610E-01
        483      4.9920774E-01 -1.9575829E-01 -1.0160137E-01
        484      1.1629980E-01 -5.4845453E-02  1.4642682E-02
        485      6.9053453E-01 -1.1773059E-02  1.9214384E-02
        486      1.3765253E+00  3.6171042E-02 -3.3100549E-03
        488      1.0661677E+00 -1.9445504E-02  2.3004500E-03
        489      7.3739896E-01  1.2324501E-01 -1.9498348E-02
        490      2.2494846E-01  9.0572587E-02 -3.8056917E-02
        491      2.3531864E-01  9.3293671E-02  6.4065825E-02
        492      2.7642492E+00 -3.4240714E-02  5.9179562E-02
        493      2.1738435E+00  6.5788220E-02 -2.1398777E-02
        494      2.2030511E+00  6.3792815E-02 -2.5677627E-02
        495      2.8095571E+00 -5.6746153E-02 -5.6573925E-02
        496      3.0000000E+00  0.0000000E+00  0.0000000E+00
        497      8.6297448E-01  8.3191115E-02 -2.5723578E-02
        499      3.3920346E-01  1.3558098E-01 -9.0144650E-02
        500      1.1196247E-01 -2.5996648E-01  2.7551097E-02
        501      7.3518212E-01 -1.6418899E-01 -6.9478503E-03
        502      1.0188995E-01 -1.0988162E-01 -1.6062398E-02
        503      7.5412844E-01  3.0583520E-01  2.5254388E-02
        504      2.2204804E-01  3.5835550E-01  8.4281971E-03
        505      2.0703593E+00  8.4146709E-02 -7.3255105E-02
        506      2.2310286E+00  1.8360773E-01 -6.6777277E-02
        507      2.9270486E+00  1.1375685E-01  1.0395669E-02
        508      2.4625997E+00  2.2356858E-01 -7.4181137E-02
        509      2.4469831E+00  1.0276636E-01 -1.0668333E-01
        510      7.3498111E-01  1.2513797E-01  2.2694559E-02
        511      1.5666810E+00 -5.6716221E-02 -2.2760574E-02
        512      6.2203320E-01  7.8343717E-02  5.1070587E-03
        513      1.2171148E+00  2.0307565E-02 -2.2979878E-02
        514      1.2380826E+00  3.3199864E-03  2.9019156E-03
        516      6.9139775E-01  5.6138977E-02 -1.0555953E-02
        517      1.6958855E-01 -4.6069077E-02  6.6033954E-02
        518      2.4121600E-01 -3.4068128E-02 -2.6121790E-02
        519      2.0404551E+00 -4.5621361E-01  2.8034341E-02
        520      1.8289270E+00 -2.3745296E-01 -8.9107570E-04
        521      2.2177662E+00 -2.7243191E-01 -8.2860478E-03
        522      1.1887836E+00  3.7328450E-01 -1.3035497E-02
        523      1.6216438E+00  8.3082103E-01 -7.1428473E-03
        524      1.7001807E+00  3.5396600E-01  1.2781801E-02
        525      1.6471893E+00  8.4823765E-01  3.5450192E-02
        526      1.2036135E+00  4.0672490E-01  3.7546068E-02
        527      1.1446592E+00  8.2481018E-01 -6.9276060E-02
        528      2.2411127E+00 -8.4228579E-02 -9.3216883E-03
        529      1.5511701E+00 -1.0315411E-01  1.8939895E-03
        530      5.7070571E-01  1.8970035E-02  4.4090450E-02
        531      2.4559118E-01  9.0590621E-02  4.3056608E-02
        532      2.1311447E-01  1.1464276E-01  6.3547505E-02
        533      2.3850677E-01  9.5512124E-02 -6.2875604E-02
        534      8.1977410E-01 -5.6780472E-03 -3.4712138E-02
        535      2.7163043E+00  9.2963569E-02 -7.8948662E-02
        536      2.2172186E+00 -1.7056352E-02 -2.6741496E-02
        537      2.8474538E+00 -1.4365520E-02 -7.6251472E-02
        538      3.0000000E+00  0.0000000E+00  0.0000000E+00
        539      2.5086837E+00  5.1260673E-01 -4.3802824E-02
        540      3.0000000E+00  0.0000000E+00  0.0000000E+00
        541      2.5967588E+00  4.8787555E-01  2.5408165E-01
        542      2.8837233E+00  2.9076317E-01  1.0723141E-01
        543      2.6666710E+00  2.1225501E-01  1.5297657E-01
        544      2.8497505E+00  1.9274535E-01 -4.9479120E-02
        545      8.6875190E-01  4.8721767E-02  1.0121316E-03
        546      1.4168047E+00  6.1983364E-03 -2.5378477E-02
        547      3.0000000E+00  0.0000000E+00  0.0000000E+00
        548      1.5092820E+00 -3.4044587E-02 -4.1146883E-02
        549      1.4983590E+00  4.9526260E-01  5.2909941E-03
        550      2.0409109E+00  3.8359438E-01 -2.2026358E-02
        551      7.7472680E-01  8.2902052E-02  1.8507230E-02
        553      2.6880706E-01  2.8642369E-02 -8.3716011E-02
        554      8.3944656E-01 -2.2190209E-02  4.4440403E-04
        555      6.5325613E-01  7.9830438E-02  3.1848606E-02
        556      2.2010262E-01  1.3301711E-01 -1.1168973E-03
        557      2.1234482E+00  8.1898724E-02 -6.7888167E-04
        558      2.7213264E+00 -1.5256700E-01  1.1321343E-01
        559      7.0521166E-01  3.1764700E-02 -7.1293674E-03
        560      8.0754001E-01  1.8720218E-02  2.4723294E-02
        561      9.2801979E-01  3.3325383E-02  2.9596438E-02
        562      2.5442160E-01  9.2180766E-02 -7.4841332E-02
        563      8.5897403E-01  1.8235936E-02  6.5456235E-02
        564      8.5836741E-01  2.6297643E-02  3.2745386E-02
        565      2.6012977E+00 -3.2942835E-02 -1.9711842E-02
        566      9.1210476E-01  6.2122293E-02  4.5827960E-02
        567      9.4481754E-01  7.7736912E-02  4.8295555E-02
        568      2.0326414E-01  5.3513975E-02  5.3916418E-02
        569      2.5809901E+00  2.4589914E-01  1.0965662E-01
        570      1.9589889E+00  3.0762089E-01  1.1320434E-01
        571      2.5244165E+00  2.5364069E-01  8.1701886E-02
        572      1.6481600E-01  5.5599973E-02  3.6880388E-02
        573      2.2867983E-01  1.5602251E-01  1.8487590E-01
        574      1.5251557E+00  2.2269901E-02 -3.4265393E-02
        575      1.5603373E+00 -5.5048304E-02  1.8829884E-02
        576      1.2345405E+00 -2.1758933E-02  8.2430908E-02
        577      2.8684045E+00 -4.8965491E-02  8.8144562E-02
        578      2.5297104E+00 -3.3956529E-02  3.1793121E-02
        579      2.7940234E+00 -2.6619434E-02  1.5557657E-02
        580      3.0000000E+00  0.0000000E+00  0.0000000E+00
        581      2.8426805E+00  1.2532332E-01  4.9901992E-03
        582      2.8626644E+00  1.7703772E-01  4.5330079E-02
        583      2.3555877E+00 -2.5685785E-02 -4.4476668E-02
        584      2.6921445E+00 -1.9123483E-02  2.1881181E-02
        585      8.0642805E-01  1.9443163E-02 -2.0927971E-02
        586      2.5088581E-01  1.6281981E-01 -1.6363254E-01
        587      1.8795899E+00 -4.9855288E-02  3.6032107E-02
        588      1.9831764E+00 -2.1072153E-02  4.1249497E-05
        589      1.3838230E+00 -2.5410181E-02  2.6939720E-04
        590      4.0869998E-01  2.1191542E-01  8.1926724E-05
        591      7.7664539E-01  6.0241247E-02  8.1758002E-03
        592      7.7502042E-01  6.0325412E-02 -8.5314982E-03
        593      7.8529913E-01  4.0866571E-02 -5.3358321E-04
        594      3.2104035E-01  7.8806993E-02 -4.4096942E-02
        595      3.2065610E-01  7.8710459E-02  4.4738310E-02
        596      2.2798676E+00 -1.4061005E-01 -5.1353255E-03
        597      3.0000000E+00  0.0000000E+00  0.0000000E+00
        598      2.9415850E+00  1.2751484E-01 -7.0237611E-02
        599      9.9615991E-01  8.8568879E-02  2.7217629E-03
        600      2.2886470E-01 -6.9087215E-03 -7.3424323E-02
        601      2.1722956E-01 -2.2915981E-02  8.7739079E-02
        602      2.4172897E+00 -4.6670974E-02 -1.7368204E-02
        603      2.2783063E+00  4.2271605E-02 -7.4610040E-03
        604      2.7970762E+00  2.6360554E-01  1.1048302E-01
        605      1.0532462E+00 -2.9965172E-01 -1.1152582E-01
        606      2.7482764E+00  1.5532565E-01  2.0937183E-04
        607      2.6375402E-01  1.0951564E-01 -1.7065270E-02
        608      6.2126730E-01  7.8741754E-02 -3.0985998E-03
        609      2.6366533E-01  1.0888114E-01  1.7669601E-02
        610      3.7964277E-01  1.3944352E-01  1.3571815E-04
        612      9.0833494E-01  4.5690765E-03 -3.7534169E-02
        613      7.7240638E-01  6.7375581E-02 -2.0106675E-02
        614      2.3459608E-01  6.5780911E-02  2.7823779E-02
        616      6.9691968E-01  7.7676287E-02 -6.8216750E-02
        617      2.2226751E-01 -2.5163837E-03  7.5759776E-02
        618      7.0669272E-01  3.0968844E-01  1.8978248E-02
        619      2.9966730E-01  5.2341226E-01  3.6935615E-02
        620      2.1079354E-01  3.3995979E-01  3.3671351E-02
        621      9.1513111E-01 -5.5168144E-02  6.5942226E-03
        622      9.3803003E-01  7.2704937E-02 -4.5876281E-02
        624      8.7545304E-01 -2.5612497E-02 -5.4037135E-02
        625      9.1694477E-01 -5.3207920E-02 -5.9793225E-03
        626      2.6995668E-01  1.3074900E-01  9.9671185E-02
        627      6.7422776E-01 -1.8656603E-02  1.4369736E-03
        628      6.5295373E-01  8.9658360E-03  6.2702462E-03
        629      8.0761064E-01 -1.1950232E-02 -2.1035017E-02
        630      6.4961748E-01  6.1447694E-01  2.3042852E-02
        631      5.8301382E-01  5.4695104E-01  1.3609732E-02
        632      8.0990175E-01 -1.0996762E-02  2.1646160E-02
        633      8.8050534E-01 -2.4417811E-02  5.5008930E-02
        634      1.0522753E+00 -3.5730949E-01 -6.7535520E-02
        635      1.4819343E+00 -7.2455801E-01  5.2779057E-03
        636      1.5126756E+00 -4.5881144E-01 -1.6788923E-02
        637      1.9456609E-01  5.3622323E-02 -5.2157168E-02
        638      2.2865465E+00  3.0945771E-03 -3.4251764E-03
        639      2.7343201E+00 -1.7964102E-02 -7.1108540E-03
        641      2.7143547E+00 -1.5850653E-01 -1.1889105E-01
        642      2.7475432E+00  2.1554695E-01 -6.2691194E-02
        643      2.9312865E+00  1.7055646E-01 -1.5989376E-01
        644      2.5411830E+00  2.7804713E-01 -1.2902668E-01
        645      2.0144346E+00  3.7796497E-01  2.8611343E-02
        646      2.5607616E+00  3.7801272E-01 -5.6883667E-03
        647      2.5291326E+00  2.5049802E-01  3.6567441E-02
        648      2.6793982E+00  4.6719529E-01  6.7361047E-02
        649      2.6646200E+00  2.5683237E-01  7.0717697E-03
        650      2.9261765E+00  4.4743846E-01  7.0077745E-02
        651      2.8933473E+00  2.1692542E-01  2.8137185E-02
        652      2.3030915E+00 -7.4469053E-02 -1.9948918E-03
        653      2.8479232E+00 -6.9099280E-02 -9.3931721E-02
        654      8.5891231E-01  8.2255585E-02  2.7042206E-02
        655      6.5251836E-01  9.3222513E-03 -4.8746826E-03
        656      2.2310075E-01 -1.6295706E-03 -7.5632345E-02
        657      6.9291490E-01  7.8052366E-02  7.0069097E-02
        658      2.6949722E+00 -9.0391503E-02 -4.5039922E-03
        659      2.4161794E+00 -4.7249463E-02  1.9474200E-02
        660      2.5720065E+00 -2.1533057E-02  1.2204952E-03
        661      2.6942689E+00 -9.0275815E-02  6.3469756E-03
        662      7.6138351E-01 -1.1913022E-02  4.8412232E-02
        663      4.0768872E-01  2.0159148E-02 -3.4034660E-02
        664      2.7863838E-01  1.3599091E-02  4.5315564E-02
        665      7.9438346E-01  1.5577679E-02 -8.9132286E-02
        666      1.2171609E+00  2.0699093E-02  2.5130251E-02
        667      7.4369069E-01  2.5161143E-02  8.5281212E-03
        668      1.5251564E+00  7.1224567E-02  5.5546837E-02
        669      4.4251358E-01  1.1406678E-02 -3.0380409E-04
        670      2.5370029E-01  7.5330921E-02 -3.5307111E-02
        671      2.5498540E-01  7.6785685E-02  3.2807150E-02
        672      2.5379351E+00 -3.6865643E-01  7.0358634E-02
        673      2.7467269E+00 -3.8873975E-01  9.4022951E-02
        674      2.8126630E+00 -5.1525577E-01  1.5138063E-01
        675      3.1857550E-01  1.7757919E-01 -1.4154626E-01
        677      4.1821026E-01  2.8813942E-02  1.6647241E-03
        678      2.6899781E-01  3.2044186E-02  8.4759276E-02
        679      9.0524222E-01  4.7053113E-02 -3.9565227E-02
        680      2.2690058E-01  9.0389816E-02  4.0043498E-02
        682      4.0597304E-01  2.0849658E-02  4.6408485E-02
        683      2.5398678E-01  8.8790615E-02  6.4970651E-02
        684      8.6292332E-01  4.1934708E-02  2.7663143E-02
        685      1.6314069E+00 -2.1727811E-01 -5.9315447E-03
        686      3.3424846E-01  1.2434218E-01  5.4627437E-03
        687      2.5179190E-01  1.6311173E-01  1.7149692E-01
        688      7.5610383E-01  3.2303902E-03  2.2182526E-02
        689      2.7775444E+00 -2.0017837E-02  1.5125430E-03
        690      2.2373631E+00 -8.6118022E-02 -7.3882277E-04
        691      8.5577723E-01 -7.8306872E-03  3.3521083E-02
        692      3.0000000E+00  0.0000000E+00  0.0000000E+00
        693      2.7840175E+00 -6.0193442E-02  2.3674034E-02
        694      1.4841472E+00 -9.6386356E-03  3.0809906E-02
        695      8.8362932E-01  2.6730400E-02  4.8604990E-03
        696      2.8243310E+00  2.2978959E-02 -8.6275712E-02
        697      1.4956168E+00 -1.2487298E-02 -2.4654208E-02
        698      2.1743622E+00  1.5216790E-02 -6.7758699E-02
        699      2.5874106E+00  8.5871368E-03 -1.7470209E-04
        700      2.2920144E+00 -6.0962940E-02  1.2522047E-02
        701      2.7750454E+00 -4.4157344E-02 -5.2046157E-02
        702      2.7748931E+00 -4.3507811E-02  5.0671408E-02
        703      1.7763145E-01 -3.7382587E-02 -6.3086720E-02
        705      7.2935449E-01  5.2409775E-02  1.4254490E-02
        706      2.6178652E+00  3.4842359E-02  9.6175262E-02
        707      2.1532180E+00 -2.5255211E-02  3.4288797E-02
        708      2.7651187E+00 -6.5310075E-02  7.2332637E-02
        709      2.9637157E-01  1.2227189E-01  4.7063550E-03
        710      3.4009552E-01  1.2795031E-03  2.0490327E-02
        711      3.1707869E-01  1.7628756E-01  1.4182280E-01
        713      2.8106986E+00 -5.7787645E-02  5.8035580E-02
        714      2.5978738E-01  1.0850823E-01  2.4819505E-02
        715      7.6946615E-01  2.1205475E-02  2.4162791E-02
        716      3.3995683E-01 -1.2033010E-04 -1.9744986E-02
        717      2.9702670E-01  1.2188587E-01 -4.0300178E-03
        718      3.9438848E-01 -1.3532030E-01  1.7132481E-01
        719      1.9263405E-01 -6.5840831E-02 -3.8725677E-02
        720      6.2889832E-01 -4.6136435E-01 -1.9440613E-02
        721      2.4829971E-01  1.2465131E-01  4.3548038E-02
        722      7.2885617E-01  6.3611432E-01 -1.5886174E-01
        723      2.4330296E-01  5.1051763E-01 -1.7215244E-01
        724      2.8277328E-01  6.8277101E-01  6.8057961E-02
        726      7.0472632E-01  6.7222220E-01  1.0329805E-01
        727      3.0000000E+00  0.0000000E+00  0.0000000E+00
        728      2.5484015E-01  8.7155538E-03 -4.2338810E-02
        729      3.6406885E-01  4.6835931E-03  4.1559901E-02
        730      2.5106191E+00 -4.2778377E-01  1.4323268E-01
        731      1.8925059E+00 -7.0112076E-01  2.6492543E-02
        732      2.0890236E+00 -3.9693418E-01  1.2688489E-01
        733      2.8028330E+00  6.1982105E-02  7.7312289E-02
        734      1.4948145E+00 -1.3804571E-02  2.4265853E-02
        735      9.1967338E-01 -1.8622710E-02  1.7735166E-02
        736      8.3776320E-01 -8.3733097E-03  8.1929427E-02
        737      2.7271531E+00 -1.3407260E-01 -1.3271862E-01
        738      1.9208819E+00 -7.1086516E-01 -7.2661652E-02
        739      2.3190296E+00 -5.0508420E-01 -1.4834548E-01
        740      3.0000000E+00  0.0000000E+00  0.0000000E+00
        741      2.3025051E+00 -5.5056057E-01  1.6787063E-03
        742      2.4737271E-01  1.2426631E-01 -4.4036966E-02
        743      1.4721875E+00 -7.2567182E-01 -1.6930718E-02
        744      1.4374900E+00 -7.5005259E-01 -1.5586190E-02
        745      1.5639835E+00 -4.2478637E-01 -1.8042548E-04
        746      1.4917462E+00 -6.8969000E-01  3.1997490E-02
        747      2.0442185E+00  7.0884618E-01  9.1245439E-03
        748      2.3309393E+00  4.2195086E-02  5.5284502E-03
        750      2.0185604E-01  3.2255381E-01  6.1273130E-02
        752      2.7370488E+00 -8.0010853E-02 -2.1480205E-02
        753      2.7344412E+00 -8.1115218E-02  2.5588578E-02
        754      1.5128172E+00  2.3036930E-02 -3.7709087E-02
        755      2.5155896E-01  6.5363762E-02 -9.8952183E-02
        756      3.6872103E-01  7.8327239E-02 -6.5286943E-03
        758      9.0723430E-01  8.4104475E-02  4.9566784E-02
        759      2.8714675E+00  3.9484901E-02 -7.0564739E-02
        760      2.7100591E+00  1.2632234E-01  7.0791367E-02
        761      3.0000000E+00  0.0000000E+00  0.0000000E+00
        763      2.7378949E+00 -7.9836939E-02 -4.3776146E-02
        764      9.1082461E-01  6.7260699E-02  3.2039172E-03
        765      2.7390216E-01 -2.4152253E-01  5.0698126E-02
        766      1.6679550E-01 -1.8353786E-01  8.6611140E-02
        767      4.1485855E-01 -1.7906791E-01  1.1505003E-01
        768      5.1624839E-01 -4.8027306E-01  3.0439968E-01
        769      1.5012983E+00 -6.1707121E-01  7.0939973E-03
        770      1.2251451E+00  9.2825334E-02 -3.4510924E-02
        771      3.0000000E+00  0.0000000E+00  0.0000000E+00
        772      2.3225572E+00 -5.4544378E-01  2.4987625E-01
        773      2.7037731E+00  2.9098090E-02 -6.1490555E-02
        774      2.7310979E+00 -2.8628142E-02  6.8413398E-02
        775      2.6005707E+00 -3.3366679E-02  9.3102224E-03
        776      2.1957143E+00 -6.1755647E-03 -1.7931213E-02
        777      2.6049576E+00  4.2805203E-01 -1.0008828E-01
        778      2.5512909E+00  5.0073459E-01 -9.3155381E-02
        779      2.1061559E+00  7.3136937E-01 -3.7561598E-02
        780      2.5561368E+00  2.9878138E-01 -9.7113703E-02
        781      1.5858245E+00  7.5335438E-01 -5.7214275E-03
        782      3.0000000E+00  0.0000000E+00  0.0000000E+00
        783      7.2148555E-01  7.5615232E-02  6.8204795E-03
        784      2.5423507E-01  1.1143572E-01 -9.7347455E-03
        785      1.6428347E+00  8.6624735E-01  1.8955051E-02
        786      1.9745477E+00  2.8768069E-01 -7.5456056E-02
        788      5.3100861E-01  5.5771494E-01 -9.7548377E-02
        789      2.8693251E-01  4.2335259E-01 -1.9671660E-01
        791      2.7573470E-01  1.3114683E-01  6.8413698E-03
        792      2.8294317E-01  4.0482669E-02 -8.8401748E-02
        793      1.8779450E-01  3.3627306E-01  1.0293374E-01
        794      5.7818916E-01  4.2640422E-01  1.1453375E-01
        795      7.0151890E-01  6.7793868E-01  2.3378628E-01
        796      5.6608631E-01  5.4704448E-01  1.6916839E-01
        797      2.0494484E-01  6.2644207E-01  2.2362247E-01
        798      2.1891109E-01  4.8539292E-01 -5.6617023E-02
        799      1.1218321E+00  8.2750916E-01  6.2992842E-02
        800      1.4697186E+00  4.1769594E-01  5.7844167E-02
        801      1.5963156E+00  7.7354866E-01  5.5378797E-02
        802      1.1870629E+00  3.9256325E-01  3.6573061E-02
        803      2.5321243E-01 -3.6040268E-02  3.5016855E-02
        804      3.0000000E+00  0.0000000E+00  0.0000000E+00
        805      3.0000000E+00  0.0000000E+00  0.0000000E+00
        807      7.0924162E-01  6.5511544E-01  1.8086522E-02
        809      3.9105062E-01  7.0092630E-02 -8.6764048E-02

 MAXIMUM          3.030      0.8662      0.3044    
 AT NODE               100         785         768

 MINIMUM          0.000     -0.7501     -0.1967    
 AT NODE                11         744         789


          THE ANALYSIS HAS BEEN COMPLETED



                              ANALYSIS COMPLETE
                              WITH      2 WARNING MESSAGES ON THE DAT FILE



     JOB TIME SUMMARY
       USER TIME (SEC)      =   1.2000    
       SYSTEM TIME (SEC)    =  0.40000    
       TOTAL CPU TIME (SEC) =   1.6000    
       WALLCLOCK TIME (SEC) =          1
