*Heading
** Job name: sq-8mm_sin-per-2_sin-amp-2mm_tet_test Model name: Model-1
** Generated by: Abaqus/CAE 2021
*Preprint, echo=NO, model=NO, history=NO, contact=NO
**
** PARTS
**
*Part, name=Part-1
*End Part
**
**
** ASSEMBLY
**
*Assembly, name=Assembly
**
*Instance, name=Part-1-1, part=Part-1
*Node
1, -20, 4, 0
2, -19.7101, 3.8181, 0
3, -19.4203, 3.6378, 0
4, -19.1304, 3.4604, 0
5, -18.8406, 3.2875, 0
6, -18.5507, 3.1205, 0
7, -18.2609, 2.9608, 0
8, -17.971, 2.8097, 0
9, -17.6812, 2.6685, 0
10, -17.3913, 2.5383, 0
11, -17.1014, 2.4202, 0
12, -16.8116, 2.3153, 0
13, -16.5217, 2.2242, 0
14, -16.2319, 2.1479, 0
15, -15.942, 2.0869, 0
16, -15.6522, 2.0418, 0
17, -15.3623, 2.0129, 0
18, -15.0725, 2.0005, 0
19, -14.7826, 2.0047, 0
20, -14.4928, 2.0253, 0
** ... 48532 like lines cut
*Element, type=C3D10H
1, 6067, 4039, 5371, 5375, 7077, 7075, 7076, 7078, 7079, 7080
2, 5227, 4199, 2944, 4239, 7083, 7081, 7082, 7084, 7085, 7086
3, 5533, 4277, 4354, 5532, 7089, 7087, 7088, 7090, 7091, 7092
4, 3328, 4316, 2501, 4307, 7095, 7093, 7094, 7096, 7097, 7098
5, 6096, 4328, 4363, 5491, 7101, 7099, 7100, 7102, 7103, 7104
6, 5449, 4155, 4161, 4129, 7107, 7105, 7106, 7108, 7109, 7110
7, 6568, 5656, 5619, 5624, 7113, 7111, 7112, 7114, 7115, 7116
8, 5281, 4713, 4662, 4678, 7119, 7117, 7118, 7120, 7121, 7122
9, 4438, 81, 4475, 3122, 7125, 7123, 7124, 7126, 7127, 7128
10, 196, 4461, 4500, 3121, 7131, 7129, 7130, 7132, 7133, 7134
11, 5727, 4671, 4691, 4649, 7137, 7135, 7136, 7138, 7139, 7140
12, 5727, 4649, 4691, 5737, 7138, 7140, 7136, 7141, 7142, 7143
13, 3838, 3827, 2753, 2761, 7146, 7144, 7145, 7147, 7148, 7149
14, 1312, 4713, 1305, 1313, 7152, 7150, 7151, 7153, 7154, 7155
15, 1684, 138, 2851, 137, 7158, 7156, 7157, 7159, 7160, 7161
16, 6188, 4899, 3289, 4896, 7164, 7162, 7163, 7165, 7166, 7167
17, 6159, 4738, 4701, 5755, 7170, 7168, 7169, 7171, 7172, 7173
18, 3829, 2716, 2902, 3841, 7176, 7174, 7175, 7177, 7178, 7179
19, 5854, 4897, 4900, 4886, 7182, 7180, 7181, 7183, 7184, 7185
20, 5854, 4855, 4853, 4886, 7188, 7186, 7187, 7183, 7189, 7190
** ... 30671 like lines cut
*Nset, nset=Set-1, generate
1, 48552, 1
*Elset, elset=Set-1, generate
1, 30691, 1
** Section: Section-1
*Solid Section, elset=Set-1, controls=EC-1, material=Material-1
,
*End Instance
**
*Nset, nset=bc-set-1, instance=Part-1-1
1, 2, 3, 4, 5, 6, 7, 8, 9, 10, 11, 12, 13, 14, 15, 16
17, 18, 19, 20, 21, 22, 23, 24, 25, 26, 27, 28, 29, 30, 31, 32
33, 34, 35, 36, 37, 38, 39, 40, 41, 42, 43, 44, 45, 46, 47, 48
49, 50, 51, 52, 53, 54, 55, 56, 57, 58, 59, 60, 61, 62, 63, 64
65, 66, 67, 68, 69, 70, 71, 72, 73, 74, 75, 76, 77, 78, 79, 80
81, 82, 83, 84, 85, 86, 87, 88, 89, 90, 91, 92, 93, 94, 95, 96
97, 98, 99, 100, 101, 102, 103, 104, 105, 106, 107, 108, 109, 110, 111, 112
113, 114, 115, 116, 117, 118, 119, 120, 121, 122, 123, 124, 125, 126, 127, 128
129, 130, 131, 132, 133, 134, 135, 136, 137, 138, 277, 283, 284, 285, 286, 287
288, 289, 290, 291, 292, 293, 294, 295, 296, 297, 298, 299, 300, 301, 302, 303
304, 305, 306, 307, 308, 309, 310, 311, 312, 313, 314, 315, 316, 317, 318, 319
320, 321, 322, 323, 324, 325, 326, 327, 328, 329, 330, 331, 332, 333, 334, 335
336, 337, 338, 339, 340, 341, 342, 343, 344, 345, 346, 347, 348, 349, 350, 351
352, 353, 354, 355, 356, 357, 358, 359, 360, 361, 362, 363, 364, 365, 366, 367
368, 369, 370, 371, 372, 373, 374, 375, 376, 377, 378, 379, 380, 381, 382, 383
384, 385, 386, 387, 388, 389, 390, 391, 392, 393, 394, 395, 396, 397, 398, 399
400, 401, 402, 403, 404, 405, 406, 407, 408, 409, 410, 411, 412, 413, 414, 415
416, 417, 418, 419, 420, 559, 589, 590, 591, 592, 593, 594, 595, 596, 597, 598
599, 600, 601, 602, 603, 604, 605, 606, 607, 608, 609, 610, 611, 612, 613, 614
615, 616, 617, 618, 619, 620, 621, 622, 623, 624, 625, 626, 627, 628, 629, 630
** ... 309 like lines cut
*Elset, elset=bc-set-1, instance=Part-1-1
9, 14, 15, 73, 90, 176, 179, 231, 232, 236, 279, 286, 290, 298, 322, 330
339, 353, 360, 367, 371, 375, 384, 387, 388, 391, 395, 401, 404, 405, 413, 423
429, 430, 434, 439, 447, 462, 466, 473, 479, 483, 496, 497, 503, 516, 518, 532
535, 552, 568, 569, 574, 601, 602, 612, 616, 618, 621, 628, 629, 630, 631, 638
647, 653, 658, 667, 677, 678, 681, 723, 727, 730, 736, 740, 749, 751, 754, 756
769, 772, 775, 781, 783, 794, 795, 796, 798, 800, 801, 802, 807, 810, 840, 847
854, 863, 866, 867, 869, 876, 878, 899, 903, 922, 931, 937, 955, 956, 958, 961
965, 986, 1002, 1013, 1030, 1040, 1050, 1064, 1068, 1075, 1080, 1095, 1109, 1127, 1128, 1131
1137, 1149, 1150, 1155, 1174, 1175, 1177, 1184, 1186, 1191, 1232, 1233, 1239, 1257, 1262, 1272
1308, 1322, 1330, 1332, 1339, 1346, 1353, 1385, 1388, 1400, 1401, 1414, 1420, 1429, 1464, 1475
1482, 1498, 1511, 1523, 1529, 1531, 1533, 1543, 1549, 1557, 1564, 1570, 1652, 1657, 1680, 1685
1711, 1712, 1724, 1725, 1732, 1733, 1745, 1747, 1749, 1750, 1751, 1752, 1753, 1759, 1769, 1785
1796, 1807, 1826, 1828, 1832, 1833, 1848, 1892, 1899, 1945, 1951, 1953, 1955, 1960, 1961, 1966
1967, 1976, 1980, 1987, 1989, 1992, 1994, 2001, 2008, 2010, 2014, 2023, 2032, 2036, 2042, 2044
2051, 2053, 2062, 2063, 2064, 2065, 2073, 2080, 2083, 2101, 2115, 2123, 2124, 2142, 2159, 2165
2175, 2180, 2182, 2199, 2217, 2220, 2227, 2234, 2241, 2246, 2256, 2269, 2270, 2272, 2279, 2286
2293, 2351, 2365, 2368, 2369, 2370, 2371, 2372, 2373, 2374, 2401, 2403, 2407, 2418, 2425, 2426
2427, 2432, 2434, 2445, 2453, 2472, 2486, 2491, 2500, 2504, 2506, 2514, 2521, 2523, 2529, 2530
2531, 2535, 2538, 2544, 2550, 2554, 2559, 2583, 2609, 2626, 2627, 2636, 2641, 2642, 2661, 2662
2667, 2672, 2674, 2680, 2684, 2696, 2697, 2719, 2723, 2733, 2734, 2738, 2741, 2745, 2746, 2751
** ... 317 like lines cut
*Nset, nset=bc-set-2, instance=Part-1-1
139, 140, 141, 142, 143, 144, 145, 146, 147, 148, 149, 150, 151, 152, 153, 154
155, 156, 157, 158, 159, 160, 161, 162, 163, 164, 165, 166, 167, 168, 169, 170
171, 172, 173, 174, 175, 176, 177, 178, 179, 180, 181, 182, 183, 184, 185, 186
187, 188, 189, 190, 191, 192, 193, 194, 195, 196, 197, 198, 199, 200, 201, 202
203, 204, 205, 206, 207, 208, 209, 210, 211, 212, 213, 214, 215, 216, 217, 218
219, 220, 221, 222, 223, 224, 225, 226, 227, 228, 229, 230, 231, 232, 233, 234
235, 236, 237, 238, 239, 240, 241, 242, 243, 244, 245, 246, 247, 248, 249, 250
251, 252, 253, 254, 255, 256, 257, 258, 259, 260, 261, 262, 263, 264, 265, 266
267, 268, 269, 270, 271, 272, 273, 274, 275, 276, 280, 421, 422, 423, 424, 425
426, 427, 428, 429, 430, 431, 432, 433, 434, 435, 436, 437, 438, 439, 440, 441
442, 443, 444, 445, 446, 447, 448, 449, 450, 451, 452, 453, 454, 455, 456, 457
458, 459, 460, 461, 462, 463, 464, 465, 466, 467, 468, 469, 470, 471, 472, 473
474, 475, 476, 477, 478, 479, 480, 481, 482, 483, 484, 485, 486, 487, 488, 489
490, 491, 492, 493, 494, 495, 496, 497, 498, 499, 500, 501, 502, 503, 504, 505
506, 507, 508, 509, 510, 511, 512, 513, 514, 515, 516, 517, 518, 519, 520, 521
522, 523, 524, 525, 526, 527, 528, 529, 530, 531, 532, 533, 534, 535, 536, 537
538, 539, 540, 541, 542, 543, 544, 545, 546, 547, 548, 549, 550, 551, 552, 553
554, 555, 556, 557, 558, 562, 1693, 1694, 1695, 1696, 1697, 1698, 1699, 1700, 1701, 1702
1703, 1704, 1705, 1706, 1707, 1708, 1709, 1710, 1711, 1712, 1713, 1714, 1715, 1716, 1717, 1718
1719, 1720, 1721, 1722, 1723, 1724, 1725, 1726, 1727, 1728, 1729, 1730, 1731, 1732, 1733, 1734
** ... 309 like lines cut
*Elset, elset=bc-set-2, instance=Part-1-1
4, 10, 13, 18, 118, 119, 125, 135, 163, 185, 238, 250, 253, 285, 288, 303
318, 319, 323, 327, 329, 336, 337, 338, 352, 362, 365, 392, 409, 410, 431, 443
450, 451, 457, 474, 506, 554, 576, 583, 585, 592, 595, 596, 597, 600, 604, 617
635, 641, 656, 668, 669, 691, 698, 711, 716, 720, 721, 722, 739, 785, 786, 792
811, 816, 818, 820, 834, 836, 865, 868, 879, 882, 890, 911, 918, 923, 957, 960
969, 982, 996, 1007, 1008, 1032, 1042, 1045, 1048, 1063, 1065, 1081, 1082, 1092, 1093, 1102
1103, 1118, 1124, 1126, 1133, 1136, 1143, 1145, 1153, 1158, 1164, 1165, 1166, 1171, 1180, 1181
1182, 1183, 1219, 1222, 1229, 1243, 1260, 1261, 1275, 1280, 1283, 1284, 1288, 1289, 1297, 1305
1315, 1326, 1344, 1355, 1364, 1365, 1379, 1392, 1393, 1394, 1395, 1419, 1421, 1423, 1443, 1444
1447, 1451, 1453, 1460, 1462, 1463, 1466, 1469, 1480, 1481, 1497, 1520, 1545, 1559, 1563, 1588
1592, 1594, 1595, 1596, 1600, 1602, 1624, 1631, 1637, 1646, 1656, 1658, 1670, 1698, 1705, 1706
1710, 1716, 1717, 1722, 1726, 1738, 1762, 1763, 1768, 1779, 1799, 1822, 1840, 1849, 1883, 1887
1898, 1902, 1906, 1925, 1926, 1932, 1935, 1956, 1970, 1981, 1982, 1995, 2003, 2018, 2022, 2025
2026, 2046, 2047, 2118, 2120, 2129, 2130, 2131, 2133, 2138, 2139, 2156, 2161, 2163, 2166, 2173
2178, 2185, 2208, 2211, 2214, 2216, 2223, 2225, 2230, 2233, 2242, 2244, 2264, 2287, 2309, 2312
2315, 2327, 2331, 2337, 2341, 2342, 2343, 2344, 2358, 2361, 2376, 2383, 2386, 2388, 2413, 2422
2423, 2431, 2437, 2452, 2454, 2455, 2458, 2459, 2460, 2463, 2465, 2467, 2475, 2476, 2478, 2493
2497, 2507, 2525, 2541, 2542, 2551, 2552, 2574, 2581, 2586, 2589, 2591, 2596, 2597, 2598, 2607
2617, 2633, 2644, 2647, 2663, 2682, 2693, 2700, 2701, 2714, 2726, 2730, 2749, 2765, 2776, 2781
2793, 2804, 2823, 2828, 2843, 2844, 2850, 2854, 2874, 2876, 2877, 2896, 2903, 2905, 2911, 2912
** ... 316 like lines cut
*End Assembly
**
** ELEMENT CONTROLS
**
*Section Controls, name=EC-1, hourglass=ENHANCED
1., 1., 1.
**
** MATERIALS
**
*Material, name=Material-1
*Hyperelastic, neo hooke
0.001724, 60
** ----------------------------------------------------------------
**
** STEP: Step-1
**
*Step, name=Step-1, nlgeom=YES
*Static
1., 1., 1e-05, 1.
**
** BOUNDARY CONDITIONS
**
** Name: BC-1 Type: Displacement/Rotation
*Boundary
bc-set-1, 1, 1, 3
bc-set-1, 2, 6
** Name: BC-2 Type: Symmetry/Antisymmetry/Encastre
*Boundary
bc-set-2, ENCASTRE
**
** OUTPUT REQUESTS
**
*Restart, write, frequency=0
**
** FIELD OUTPUT: F-Output-1
**
*Output, field, variable=PRESELECT
**
** HISTORY OUTPUT: H-Output-1
**
*Output, history, variable=PRESELECT
*NODE PRINT
U
*EL PRINT, position = centroidal
DG
*EL PRINT, elset = bc-set-1, position = centroidal
S12
*EL PRINT, elset = bc-set-2, position = centroidal
S12
*End Step