1

   Abaqus 2021                                  Date 20-Jul-2023   Time 14:14:53
   For use by UNIVERSITY OF MICHIGAN under license from Dassault Systemes or its subsidiary.



                         The Abaqus Software is a product of:

                           Dassault Systemes SIMULIA Corp.
                           1301 Atwood Avenue, Suite 101W
                              Johnston, RI 02919, USA
 


                   The Abaqus Software is available only under license
                   from Dassault Systemes or its subsidiary and may be
                   used or reproduced only in accordance with the terms
                   of such license.
 
                          On machine ME-ESTRADALAB04 
                          you are authorized to run
                          Abaqus/Standard until 31-Jul-2024

                          Your site id is: 200000000004058 


 
                    For assistance or any other information you may
                    obtain contact information for your local office
                    from the world wide web at:

                      http://www.3ds.com/products/simulia/locations/

 
                * * * * * * * * * * * * * * * * * * * * * * * * * * * * * * 
                *                                                         * 
                *                   *****************                     * 
                *                   *  N O T I C E  *                     * 
                *                   *****************                     * 
                *                                                         * 
                *                                                         * 
                *                       Abaqus 2021                       * 
                *                                                         * 
                *          BUILD ID: 2020_03_06-09.50.37 167380           * 
                *                                                         * 
                *                                                         * 
                *  Please make sure you are using                         * 
                *  release Abaqus 2021 manuals                            * 
                *  plus the notes accompanying this release.              * 
                *                                                         * 
                *                                                         * 
                *                                                         * 
                *                                                         * 
                *                                                         * 
                *   This program may not be used for commercial purposes  * 
                *           without payment of a commercial fee.          * 
                *                                                         * 
                * * * * * * * * * * * * * * * * * * * * * * * * * * * * * * 


 



     PROCESSING PART, INSTANCE, AND ASSEMBLY INFORMATION
   *******************************************************


     END PROCESSING PART, INSTANCE, AND ASSEMBLY INFORMATION
   ***********************************************************




     OPTIONS BEING PROCESSED
   ***************************


  *Heading
  *Node
  *Element, type=C3D4H
  *Nset, nset=ASSEMBLY_PART-1-1_SET-1
  *Elset, elset=ASSEMBLY_PART-1-1_SET-1
  *Nset, nset=ASSEMBLY_BC-SET-1
  *Nset, nset=ASSEMBLY_BC-SET-2
  *Elset, elset=ASSEMBLY_BC-SET-1
  *Elset, elset=ASSEMBLY_BC-SET-2
  *material, name=MATERIAL-1
  *hyperelastic, neohooke
  *solidsection, elset=ASSEMBLY_PART-1-1_SET-1, controls=EC-1, material=MATERIAL-1
  *sectioncontrols, name=EC-1, hourglass=ENHANCED

 ***WARNING: THE PARAMETER HOURGLASS = ENHANCED ON THE SECTION CONTROLS OPTION 
             IS RELEVANT FOR THESE ELEMENTS: C3D8R, CAX4R, CGAX4R, CPEG4R, 
             CPE4R, CPS4R, M3D4R, S4R, SC8R AND THEIR HYBRID, THERMAL AND 
             PRESSURE COUNTERPARTS WHEREVER APPLICABLE. IT IS ALSO RELEVANT FOR 
             ALL TYPES OF MODIFIED TRIANGULAR AND TETRAHEDRAL ELEMENTS. THIS 
             WARNING CAN BE IGNORED IF THE FEATURE IS APPLIED TO THESE ELEMENT 
             TYPES ONLY.
  *solidsection, elset=ASSEMBLY_PART-1-1_SET-1, controls=EC-1, material=MATERIAL-1
  *boundary
  *boundary
  *boundary
  *boundary
  *output, field, variable=PRESELECT
  *output, history, variable=PRESELECT
  *output, field, variable=PRESELECT
  *output, history, variable=PRESELECT
  *output, field, variable=PRESELECT
  *output, history, variable=PRESELECT

 ***NOTE: C3D10HS AND HYBRID TETRAHEDRAL ELEMENTS WILL ENFORCE VOLUMETRIC 
          CONTINUITY ACROSS MATERIAL BOUNDARIES. IN ORDER TO ALLOW 
          DISCONTINUITIES IN THE VOLUMETRIC FIELD USE *TIE.
  *Step, name=Step-1, nlgeom=YES
  *output, field, variable=PRESELECT
  *output, history, variable=PRESELECT
  *Step, name=Step-1, nlgeom=YES
  *Step, name=Step-1, nlgeom=YES
  *static
  *boundary
  *boundary
  *output, field, variable=PRESELECT
  *output, history, variable=PRESELECT
  *nodeprint
  *elprint, position=CENTROIDAL

 ***WARNING: OUTPUT REQUEST DG IS ONLY AVAILABLE FOR *HYPERELASTIC/FOAM AND 
             *USER MATERIAL.
  *nodeprint, nset=ASSEMBLY_BC-SET-1
  *nodeprint, nset=ASSEMBLY_BC-SET-2
  *endstep
  *Step, name=Step-1, nlgeom=YES
  *static
  *boundary
  *boundary
  *endstep

 ***NOTE: Boundary conditions are specified on inactive dof of 679 nodes. The 
          nodes have been identified in node set WarnNodeBCInactiveDof.


                              E L E M E N T,   N O D E,   A N D   S U R F A C E   M A P S


**NOTE: This section may not include complete information about
        members of sets and surfaces. Use *PREPRINT, MODEL=YES 
        in order to get the set and surface members printed    
        under the following sections:                          
            - E L E M E N T   S E T S                          
            - N O D E   S E T S                                
            - S U R F A C E   D E F I N I T I O N S .          


Assembly name: ASSEMBLY
Number of instances: 1

ASSEMBLY LEVEL
  node sets:
    BC-SET-1:
      instance name: PART-1-1
      number of nodes: 679
      nodes: 
        1 2 3 4 5 6 7 8 9 10 11 12 13 14 15 16 17 18 19 20 21 22 23 24
        25 26 27 28 29 30 31 32 33 34 35 36 37 38 39 40 41 42 43 44 45
        46 47 48 49 50 51 52 53 54 55 56 57 58 59 60 61 62 63 64 65 66
        67 68 69 70 71 72 73 74 75 76 77 78 79 80 81 82 83 84 85 86 87
        88 89 90 181 182 183 184 185 186 187 199 200 201 202 203 204 205
        206 207 208 209 210 211 212 213 214 215 216 217 218 219 220 221
        222 223 224 225 226 227 228 229 230 231 232 233 234 235 236 237
        238 239 240 241 242 243 244 245 246 247 248 249 250 251 252 253
        254 255 256 257 258 259 260 261 262 263 264 265 266 267 268 269
        270 271 272 273 274 275 276 277 278 279 280 281 282 283 284 285
        286 287 288 379 380 381 382 383 384 385 409 410 411 412 413 414
        415 416 417 418 419 420 421 422 423 424 425 426 427 428 429 430
        431 432 433 434 435 436 437 438 439 440 441 442 443 444 445 446
        447 448 449 450 451 452 453 454 455 456 457 458 459 460 461 462
        463 464 465 466 467 468 469 470 471 472 473 474 475 476 477 478
        479 480 481 482 483 484 485 486 487 488 489 490 491 492 493 494
        495 496 497 498 499 500 501 502 503 504 505 506 507 508 509 510
        511 512 513 514 515 516 517 518 519 520 521 522 523 524 525 526
        527 528 529 530 531 532 533 534 535 536 537 538 539 540 541 542
        543 544 545 546 547 548 549 550 551 552 553 554 555 556 557 558
        559 560 561 562 563 564 565 566 567 568 569 570 571 572 573 574
        575 576 577 578 579 580 581 582 583 584 585 586 587 588 589 590
        591 592 593 594 595 596 597 598 599 600 601 602 603 604 605 606
        607 608 609 610 611 612 613 614 615 616 617 618 619 620 621 622
        623 624 625 626 627 628 629 630 631 632 633 634 635 636 637 638
        639 640 641 642 643 644 645 646 647 648 649 650 651 652 653 654
        655 656 657 658 659 660 661 662 663 664 665 666 667 668 669 670
        671 672 673 674 675 676 677 678 679 680 681 682 683 684 685 686
        687 688 689 690 691 692 693 694 695 696 697 698 699 700 701 702
        703 704 705 706 707 708 709 710 711 712 713 714 715 716 717 718
        719 720 721 722 723 724 725 726 727 728 729 730 731 732 733 734
        735 736 737 738 739 740 741 742 743 744 745 746 747 748 749 750
        751 752 753 754 755 756 757 758 759 760 761 762 763 764 765 766
        767 768 769 770 771 772 773 774 775 776 777 778 779 780 781 782
        783 784 785 786 787 788 789 790 791 792 793 794 795 796 797 798
        799 800 801 802 803 804 805 806 807 808 809 810 811 812 813 814
        815 816 817 818 819 820 821 822 823 824 825 826 827 828 829 830
        831 832 833 834 835 836 837 838 839 840 841 842 843 844 845 846
        847 848 849 850 851 852 853 854 855 856 857 858 1309 1310 1311
        1312 1313 1314 1315 1316 1317 1318 1319 1320 1321 1322 1323 1324
        1325 1326 1327 1328 1329 1330 1331 1332 1333 1334 1335 1336 1337
        1338 1339 1340 1341 1342 1343

    BC-SET-2:
      instance name: PART-1-1
      number of nodes: 679
      nodes: 
        91 92 93 94 95 96 97 98 99 100 101 102 103 104 105 106 107 108
        109 110 111 112 113 114 115 116 117 118 119 120 121 122 123 124
        125 126 127 128 129 130 131 132 133 134 135 136 137 138 139 140
        141 142 143 144 145 146 147 148 149 150 151 152 153 154 155 156
        157 158 159 160 161 162 163 164 165 166 167 168 169 170 171 172
        173 174 175 176 177 178 179 180 190 191 192 193 194 195 196 289
        290 291 292 293 294 295 296 297 298 299 300 301 302 303 304 305
        306 307 308 309 310 311 312 313 314 315 316 317 318 319 320 321
        322 323 324 325 326 327 328 329 330 331 332 333 334 335 336 337
        338 339 340 341 342 343 344 345 346 347 348 349 350 351 352 353
        354 355 356 357 358 359 360 361 362 363 364 365 366 367 368 369
        370 371 372 373 374 375 376 377 378 388 389 390 391 392 393 394
        859 860 861 862 863 864 865 866 867 868 869 870 871 872 873 874
        875 876 877 878 879 880 881 882 883 884 885 886 887 888 889 890
        891 892 893 894 895 896 897 898 899 900 901 902 903 904 905 906
        907 908 909 910 911 912 913 914 915 916 917 918 919 920 921 922
        923 924 925 926 927 928 929 930 931 932 933 934 935 936 937 938
        939 940 941 942 943 944 945 946 947 948 949 950 951 952 953 954
        955 956 957 958 959 960 961 962 963 964 965 966 967 968 969 970
        971 972 973 974 975 976 977 978 979 980 981 982 983 984 985 986
        987 988 989 990 991 992 993 994 995 996 997 998 999 1000 1001
        1002 1003 1004 1005 1006 1007 1008 1009 1010 1011 1012 1013 1014
        1015 1016 1017 1018 1019 1020 1021 1022 1023 1024 1025 1026 1027
        1028 1029 1030 1031 1032 1033 1034 1035 1036 1037 1038 1039 1040
        1041 1042 1043 1044 1045 1046 1047 1048 1049 1050 1051 1052 1053
        1054 1055 1056 1057 1058 1059 1060 1061 1062 1063 1064 1065 1066
        1067 1068 1069 1070 1071 1072 1073 1074 1075 1076 1077 1078 1079
        1080 1081 1082 1083 1084 1085 1086 1087 1088 1089 1090 1091 1092
        1093 1094 1095 1096 1097 1098 1099 1100 1101 1102 1103 1104 1105
        1106 1107 1108 1109 1110 1111 1112 1113 1114 1115 1116 1117 1118
        1119 1120 1121 1122 1123 1124 1125 1126 1127 1128 1129 1130 1131
        1132 1133 1134 1135 1136 1137 1138 1139 1140 1141 1142 1143 1144
        1145 1146 1147 1148 1149 1150 1151 1152 1153 1154 1155 1156 1157
        1158 1159 1160 1161 1162 1163 1164 1165 1166 1167 1168 1169 1170
        1171 1172 1173 1174 1175 1176 1177 1178 1179 1180 1181 1182 1183
        1184 1185 1186 1187 1188 1189 1190 1191 1192 1193 1194 1195 1196
        1197 1198 1199 1200 1201 1202 1203 1204 1205 1206 1207 1208 1209
        1210 1211 1212 1213 1214 1215 1216 1217 1218 1219 1220 1221 1222
        1223 1224 1225 1226 1227 1228 1229 1230 1231 1232 1233 1234 1235
        1236 1237 1238 1239 1240 1241 1242 1243 1244 1245 1246 1247 1248
        1249 1250 1251 1252 1253 1254 1255 1256 1257 1258 1259 1260 1261
        1262 1263 1264 1265 1266 1267 1268 1269 1270 1271 1272 1273 1274
        1275 1276 1277 1278 1279 1280 1281 1282 1283 1284 1285 1286 1287
        1288 1289 1290 1291 1292 1293 1294 1295 1296 1297 1298 1299 1300
        1301 1302 1303 1304 1305 1306 1307 1308 1354 1355 1356 1357 1358
        1359 1360 1361 1362 1363 1364 1365 1366 1367 1368 1369 1370 1371
        1372 1373 1374 1375 1376 1377 1378 1379 1380 1381 1382 1383 1384
        1385 1386 1387 1388

  element sets:
    BC-SET-1:
      instance name: PART-1-1
      number of elements: 2452
      elements: 
        14 23 84 89 90 107 109 111 121 133 140 155 156 175 182 188 205
        211 212 221 225 227 240 242 244 251 255 258 262 265 272 273 274
        275 277 280 281 283 285 286 294 298 299 300 302 305 306 308 311
        312 314 315 316 325 334 336 341 348 351 362 366 370 375 383 387
        390 392 396 402 403 404 407 410 411 414 415 416 417 418 420 426
        435 451 452 453 455 457 459 463 465 467 474 476 481 490 491 492
        496 497 499 501 502 503 507 513 518 520 521 523 524 525 527 529
        532 533 534 535 537 539 540 541 545 555 556 566 568 579 582 584
        586 589 593 603 607 608 610 612 615 618 619 620 621 623 626 629
        630 632 638 639 640 647 655 656 658 659 664 666 667 668 672 679
        682 684 686 690 691 693 695 697 704 705 707 709 710 711 712 714
        715 717 718 719 720 722 723 725 728 729 733 740 741 742 744 749
        754 757 758 765 766 767 768 779 785 787 793 795 798 801 810 815
        817 819 822 823 825 828 829 830 835 837 838 839 841 842 843 844
        845 846 848 850 851 853 855 856 860 861 864 868 869 871 875 877
        883 887 892 899 900 909 910 915 917 921 926 927 928 935 939 942
        944 947 950 952 953 958 959 960 962 963 965 969 972 975 979 980
        981 982 984 986 989 992 993 998 1001 1006 1013 1015 1017 1025
        1030 1031 1032 1033 1043 1044 1048 1050 1054 1055 1057 1059 1067
        1071 1073 1075 1078 1079 1081 1082 1087 1089 1090 1092 1094 1097
        1100 1102 1103 1110 1112 1113 1118 1119 1148 1151 1152 1153 1154
        1161 1169 1170 1172 1178 1181 1182 1186 1188 1193 1194 1196 1197
        1198 1199 1200 1201 1206 1218 1222 1223 1227 1236 1246 1247 1249
        1250 1251 1252 1253 1254 1255 1257 1258 1261 1263 1264 1271 1273
        1274 1275 1277 1278 1299 1301 1306 1310 1314 1318 1321 1323 1330
        1333 1343 1345 1347 1350 1354 1356 1362 1375 1376 1377 1378 1379
        1382 1383 1384 1386 1391 1397 1399 1400 1401 1402 1403 1405 1406
        1407 1409 1410 1411 1414 1422 1440 1441 1446 1447 1448 1451 1452
        1453 1454 1455 1457 1458 1460 1461 1464 1467 1468 1469 1470 1472
        1476 1483 1502 1504 1505 1511 1513 1515 1516 1520 1528 1529 1532
        1534 1535 1536 1540 1541 1543 1546 1548 1550 1551 1559 1562 1564
        1571 1573 1574 1575 1577 1578 1579 1580 1583 1584 1589 1592 1594
        1595 1602 1604 1611 1617 1618 1619 1621 1626 1629 1632 1633 1634
        1638 1640 1641 1642 1645 1646 1649 1654 1661 1671 1672 1673 1674
        1675 1680 1688 1690 1691 1692 1693 1694 1695 1696 1697 1701 1702
        1703 1704 1705 1706 1709 1710 1711 1715 1720 1722 1724 1728 1729
        1732 1733 1734 1736 1744 1747 1749 1758 1760 1762 1764 1776 1777
        1778 1779 1780 1781 1782 1784 1785 1787 1790 1792 1793 1795 1801
        1802 1804 1811 1817 1819 1824 1830 1832 1835 1838 1842 1847 1848
        1852 1853 1858 1862 1865 1879 1881 1883 1885 1887 1888 1891 1892
        1893 1910 1912 1921 1922 1924 1926 1927 1928 1932 1943 1951 1958
        1965 1966 1968 1971 1977 1981 1982 1983 1986 1997 1999 2000 2001
        2003 2008 2011 2012 2013 2014 2015 2016 2018 2021 2022 2025 2030
        2032 2033 2034 2037 2040 2041 2043 2045 2049 2051 2058 2059 2062
        2072 2075 2081 2084 2086 2096 2097 2100 2101 2102 2103 2104 2105
        2106 2107 2110 2111 2112 2117 2118 2119 2124 2126 2137 2145 2151
        2152 2156 2159 2161 2162 2165 2168 2169 2170 2171 2174 2175 2184
        2188 2193 2198 2199 2200 2201 2202 2203 2205 2208 2209 2214 2215
        2219 2222 2225 2241 2242 2244 2245 2246 2248 2249 2250 2251 2257
        2261 2263 2266 2267 2269 2273 2280 2283 2284 2285 2286 2287 2293
        2296 2301 2302 2304 2306 2308 2310 2312 2313 2316 2318 2320 2321
        2322 2325 2326 2339 2343 2344 2345 2346 2347 2350 2355 2356 2363
        2365 2366 2368 2371 2372 2373 2377 2392 2404 2406 2408 2415 2417
        2427 2431 2433 2435 2437 2440 2442 2446 2447 2448 2449 2450 2453
        2470 2474 2475 2482 2484 2485 2493 2494 2497 2498 2499 2500 2502
        2507 2509 2520 2521 2528 2529 2531 2532 2534 2535 2536 2538 2541
        2552 2555 2557 2558 2559 2561 2562 2563 2565 2566 2567 2568 2569
        2570 2574 2575 2581 2592 2593 2596 2609 2613 2618 2626 2629 2649
        2651 2652 2658 2661 2670 2678 2688 2690 2691 2695 2700 2702 2711
        2712 2717 2719 2720 2723 2724 2726 2730 2737 2740 2744 2750 2752
        2753 2770 2772 2773 2774 2775 2777 2780 2782 2795 2797 2798 2820
        2821 2824 2826 2831 2832 2833 2845 2846 2847 2848 2850 2851 2853
        2863 2869 2872 2874 2876 2882 2883 2889 2892 2893 2894 2905 2906
        2908 2909 2914 2918 2919 2925 2930 2931 2934 2935 2937 2940 2941
        2952 2955 2956 2957 2958 2959 2961 2962 2963 2964 2965 2966 2972
        2974 2975 2976 2980 2981 2982 2984 2986 2990 2991 2992 2994 2997
        2998 3000 3001 3009 3013 3014 3015 3016 3017 3022 3024 3028 3029
        3030 3033 3041 3047 3050 3052 3058 3069 3072 3091 3092 3094 3097
        3101 3108 3109 3110 3112 3113 3114 3115 3121 3122 3126 3133 3134
        3137 3154 3157 3158 3161 3167 3169 3170 3171 3182 3183 3184 3185
        3188 3189 3190 3196 3213 3215 3216 3219 3226 3233 3238 3241 3244
        3248 3249 3250 3251 3253 3254 3256 3257 3262 3264 3268 3272 3279
        3289 3291 3292 3298 3300 3309 3315 3320 3321 3323 3325 3329 3334
        3344 3351 3355 3359 3368 3372 3390 3393 3409 3419 3426 3427 3430
        3432 3444 3446 3448 3452 3453 3467 3469 3472 3477 3480 3481 3482
        3483 3484 3488 3493 3494 3495 3496 3501 3507 3515 3516 3520 3521
        3530 3535 3543 3546 3549 3555 3556 3561 3564 3565 3566 3568 3570
        3572 3576 3578 3582 3584 3585 3586 3590 3591 3592 3598 3599 3602
        3604 3612 3615 3616 3618 3619 3620 3621 3622 3624 3630 3639 3642
        3644 3653 3654 3657 3659 3660 3661 3664 3665 3667 3668 3669 3672
        3674 3678 3682 3686 3689 3691 3695 3696 3699 3701 3703 3705 3707
        3711 3712 3722 3726 3734 3742 3751 3764 3766 3767 3774 3777 3780
        3781 3784 3787 3792 3796 3798 3811 3825 3831 3836 3838 3851 3853
        3867 3886 3889 3890 3894 3896 3912 3913 3916 3917 3920 3921 3923
        3924 3926 3932 3936 3938 3939 3942 3944 3951 3953 3956 3959 3974
        3976 3985 3990 3991 3997 3998 4004 4007 4010 4011 4012 4014 4018
        4020 4022 4025 4026 4030 4031 4034 4035 4036 4037 4038 4039 4040
        4045 4049 4052 4062 4063 4064 4067 4068 4069 4070 4072 4074 4083
        4084 4089 4090 4091 4097 4098 4099 4100 4102 4109 4115 4120 4122
        4124 4126 4127 4137 4140 4141 4153 4161 4165 4175 4184 4185 4188
        4189 4197 4199 4206 4207 4211 4222 4223 4225 4226 4228 4230 4231
        4237 4239 4262 4266 4271 4274 4276 4281 4283 4284 4294 4296 4299
        4303 4304 4307 4309 4313 4334 4342 4345 4346 4347 4348 4349 4352
        4361 4362 4363 4368 4373 4375 4390 4391 4392 4410 4417 4418 4424
        4425 4427 4429 4430 4433 4435 4440 4450 4451 4452 4454 4455 4456
        4457 4461 4465 4470 4471 4474 4477 4482 4484 4485 4486 4488 4489
        4490 4491 4492 4493 4495 4498 4499 4505 4506 4507 4509 4510 4511
        4521 4526 4530 4535 4537 4541 4545 4546 4548 4549 4558 4585 4587
        4588 4589 4592 4593 4599 4600 4603 4626 4627 4628 4629 4631 4634
        4642 4648 4653 4654 4658 4663 4667 4671 4672 4673 4676 4678 4680
        4686 4692 4701 4706 4737 4742 4752 4753 4754 4755 4756 4757 4768
        4770 4776 4777 4779 4780 4785 4786 4790 4797 4800 4803 4804 4805
        4806 4807 4835 4836 4838 4840 4841 4848 4852 4853 4854 4863 4864
        4870 4871 4873 4883 4884 4889 4890 4891 4893 4895 4896 4918 4919
        4920 4928 4939 4942 4944 4948 4949 4957 4961 4963 4972 4979 4983
        4991 4992 4994 4997 4998 5003 5006 5010 5013 5017 5019 5020 5021
        5027 5028 5030 5035 5037 5038 5039 5047 5048 5053 5054 5056 5057
        5068 5080 5086 5087 5088 5091 5095 5097 5100 5101 5105 5106 5109
        5110 5111 5112 5130 5131 5132 5133 5134 5135 5136 5137 5138 5140
        5142 5147 5154 5155 5156 5158 5160 5161 5165 5166 5167 5173 5178
        5179 5182 5185 5186 5189 5214 5217 5236 5239 5245 5246 5247 5248
        5250 5251 5266 5267 5271 5272 5273 5274 5289 5290 5292 5312 5315
        5341 5345 5346 5347 5353 5359 5365 5368 5380 5388 5389 5393 5394
        5395 5404 5410 5411 5412 5414 5421 5425 5436 5437 5438 5442 5446
        5447 5448 5460 5463 5464 5465 5466 5468 5474 5484 5486 5488 5491
        5492 5498 5499 5500 5506 5507 5511 5512 5513 5523 5525 5527 5528
        5529 5549 5550 5551 5561 5582 5588 5589 5591 5595 5601 5610 5613
        5615 5616 5620 5622 5634 5635 5638 5643 5649 5650 5656 5669 5670
        5675 5676 5693 5701 5721 5723 5724 5725 5729 5731 5736 5760 5761
        5762 5766 5767 5769 5772 5775 5776 5777 5780 5781 5784 5788 5811
        5815 5817 5830 5831 5832 5836 5846 5858 5868 5872 5876 5885 5886
        5888 5889 5891 5892 5899 5901 5906 5907 5908 5915 5916 5922 5935
        5940 5943 5944 5945 5948 5954 5955 5957 5961 5965 5968 5971 5973
        5975 5980 5984 5994 5995 5999 6001 6003 6006 6007 6010 6017 6028
        6029 6040 6041 6042 6044 6045 6046 6057 6058 6074 6079 6088 6092
        6100 6101 6102 6103 6115 6121 6126 6158 6160 6162 6163 6164 6165
        6166 6167 6168 6173 6179 6186 6187 6189 6190 6191 6192 6193 6211
        6215 6225 6226 6228 6232 6236 6237 6243 6253 6259 6260 6261 6265
        6268 6269 6270 6279 6286 6293 6294 6301 6319 6321 6322 6323 6324
        6325 6335 6336 6337 6338 6339 6341 6346 6348 6349 6351 6352 6353
        6356 6360 6362 6365 6368 6370 6371 6378 6382 6386 6387 6391 6393
        6396 6402 6405 6406 6407 6408 6414 6419 6420 6423 6430 6444 6447
        6453 6460 6461 6462 6468 6470 6471 6474 6475 6485 6490 6491 6504
        6506 6507 6510 6518 6547 6554 6555 6557 6559 6562 6565 6574 6577
        6578 6592 6594 6598 6601 6602 6603 6604 6610 6612 6613 6614 6630
        6635 6640 6644 6650 6653 6654 6659 6661 6682 6683 6685 6702 6721
        6731 6741 6750 6751 6755 6756 6758 6762 6767 6772 6778 6779 6786
        6787 6788 6798 6807 6816 6837 6841 6858 6870 6871 6881 6887 6889
        6891 6892 6893 6916 6925 6926 6942 6949 6953 6968 6973 6984 6988
        7011 7013 7018 7032 7036 7037 7038 7055 7056 7061 7062 7065 7066
        7067 7068 7071 7082 7083 7096 7097 7103 7111 7114 7116 7119 7125
        7129 7130 7131 7132 7136 7145 7146 7147 7150 7168 7172 7193 7194
        7206 7217 7257 7260 7261 7262 7265 7267 7273 7283 7284 7287 7288
        7300 7345 7347 7374 7378 7386 7397 7399 7402 7404 7409 7410 7414
        7433 7435 7440 7444 7465 7467 7471 7472 7473 7474 7476 7479 7498
        7499 7500 7502 7529 7532 7533 7534 7539 7541 7561 7563 7564 7572
        7574 7594 7595 7597 7599 7605 7614 7616 7621 7625 7632 7637 7652
        7664 7669 7670 7678 7691 7692 7693 7694 7695 7704 7711 7714 7716
        7717 7718 7719 7720 7721 7725 7736 7737 7768 7778 7779 7783 7786
        7787 7788 7789 7795 7796 7801 7810 7819 7820 7821 7822 7827 7836
        7841 7842 7844 7847 7862 7874 7875 7876 7880 7881 7882 7890 7891
        7893 7894 7895 7896 7902 7903 7908 7909 7910 7913 7914 7916 7918
        7919 7928 7944 7952 7955 7956 7957 7958 7971 7973 7974 7979 7995
        8025 8026 8027 8029 8041 8046 8057 8063 8067 8088 8095 8109 8110
        8140 8149 8153 8155 8159 8169 8212 8217 8218 8220 8223 8224 8232
        8235 8242 8248 8249 8251 8253 8254 8255 8259 8262 8263 8264 8269
        8275 8296 8297 8298 8299 8300 8303 8306 8308 8309 8312 8314 8315
        8317 8318 8347 8353 8370 8375 8377 8381 8395 8399 8406 8422 8431
        8433 8434 8438 8445 8447 8452 8459 8466 8468 8469 8470 8471 8472
        8475 8479 8488 8504 8505 8515 8516 8517 8518 8520 8522 8525 8533
        8536 8540 8545 8550 8551 8553 8564 8566 8568 8571 8577 8581 8583
        8584 8587 8590 8592 8594 8595 8596 8610 8611 8626 8629 8631 8638
        8639 8641 8642 8649 8650 8658 8661 8663 8691 8697 8698 8699 8700
        8701 8703 8715 8724 8725 8727 8728 8730 8733 8734 8743 8744 8746
        8764 8766 8767 8770 8784 8789 8791 8792 8814 8838 8840 8843 8844
        8847 8856 8857 8870 8871 8874 8883 8884 8887 8889 8890 8891 8892
        8893 8894 8895 8904 8905 8909 8913 8914 8915 8940 8942 8943 8944
        8945 8957 8958 8961 8962 8973 8974 8975 8976 8978 8988 8990 8991
        8993 8997 9010 9013 9015 9022 9023 9041 9049 9051 9052 9069 9070
        9071 9072 9074 9076 9081 9088 9119 9122 9124 9130 9131 9135 9139
        9140 9143 9156 9157 9158 9162 9164 9172 9180 9195 9202 9203 9204
        9205 9221 9228 9234 9238 9241 9249 9250 9251 9252 9262 9263 9273
        9281 9286 9291 9292 9293 9300 9307 9310 9311 9312 9313 9317 9318
        9336 9338 9339 9340 9363 9377 9380 9381 9385 9386 9388 9390 9391
        9393 9403 9404 9407 9413 9415 9423 9455 9456 9457 9459 9465 9466
        9467 9475 9481 9482 9483 9484 9485 9492 9497 9503 9504 9510 9511
        9515 9517 9523 9531 9532 9533 9534 9535 9536 9537 9538 9539 9540
        9541 9549 9566 9567 9570 9581 9592 9594 9600 9609 9610 9611 9612
        9614 9616 9625 9626 9627 9628 9629 9636 9638 9675 9676 9677 9679
        9688 9689 9690 9691 9695 9696 9704 9705 9708 9713 9721 9723 9724
        9726 9727 9728 9729 9737 9738 9742 9746 9747 9751 9752 9753 9754
        9764 9771 9782 9786 9794 9795 9796 9797 9804 9806 9812 9813 9816
        9833 9835 9836 9837 9839 9841 9846 9847 9848 9855 9873 9874 9875
        9877 9887 9894 9895 9905 9933 9942 9944 9945 9950 9951 9952 9953
        9954 9955 9956 9958 9968 9971 9973

    BC-SET-2:
      instance name: PART-1-1
      number of elements: 2467
      elements: 
        16 27 80 134 141 162 177 191 215 224 226 230 233 234 236 241 245
        246 247 249 250 252 253 254 256 260 263 264 267 268 276 282 287
        288 289 291 303 304 309 310 317 318 320 321 322 323 326 332 335
        337 338 339 342 344 347 349 352 353 354 355 357 358 363 364 368
        369 372 373 377 378 379 382 388 393 398 405 412 419 423 427 428
        429 430 431 432 433 434 436 437 438 439 442 443 444 445 446 448
        449 450 454 456 458 461 464 468 470 471 472 475 477 478 479 480
        482 483 486 487 488 489 494 498 500 504 505 506 508 509 510 512
        514 516 517 519 538 543 544 547 548 549 550 551 554 557 558 559
        564 565 569 571 575 576 577 580 581 583 587 588 590 592 594 595
        596 597 598 600 601 602 604 605 606 611 617 624 625 627 628 642
        645 650 657 661 662 663 669 671 677 678 680 681 683 687 688 689
        692 694 696 699 701 702 703 706 708 716 724 726 727 730 731 735
        736 738 743 746 748 750 756 759 764 771 774 775 777 780 781 783
        784 786 797 800 802 803 805 811 812 813 814 818 831 857 862 867
        870 872 873 874 879 880 889 890 891 895 896 898 901 902 903 904
        905 906 907 908 914 924 930 931 932 934 936 937 938 940 941 943
        946 948 949 951 954 964 966 968 970 976 977 985 990 991 994 1003
        1005 1007 1011 1014 1016 1018 1020 1023 1024 1026 1027 1034 1035
        1038 1039 1040 1045 1046 1062 1063 1065 1066 1069 1070 1072 1076
        1077 1080 1083 1084 1085 1099 1114 1117 1123 1127 1129 1132 1134
        1136 1138 1140 1142 1144 1145 1146 1147 1149 1150 1157 1158 1159
        1162 1164 1174 1177 1179 1184 1185 1189 1190 1191 1192 1195 1208
        1212 1213 1214 1219 1224 1228 1233 1234 1235 1237 1240 1241 1245
        1248 1256 1259 1260 1262 1266 1269 1270 1272 1279 1282 1283 1284
        1286 1288 1289 1290 1294 1300 1311 1313 1322 1328 1332 1335 1342
        1348 1357 1359 1360 1361 1365 1367 1368 1369 1370 1371 1373 1374
        1380 1388 1389 1392 1393 1398 1412 1413 1417 1418 1419 1421 1429
        1430 1431 1432 1436 1438 1439 1443 1444 1445 1449 1459 1463 1466
        1475 1481 1487 1488 1491 1492 1493 1494 1496 1497 1498 1499 1500
        1501 1503 1506 1509 1517 1518 1519 1523 1524 1525 1526 1531 1533
        1537 1539 1544 1547 1552 1558 1566 1569 1587 1590 1593 1596 1600
        1601 1603 1605 1610 1612 1613 1614 1615 1616 1623 1625 1627 1628
        1631 1635 1636 1639 1658 1660 1662 1666 1670 1678 1689 1698 1700
        1708 1712 1716 1719 1721 1726 1731 1738 1740 1742 1743 1746 1748
        1750 1751 1752 1753 1755 1756 1757 1759 1766 1767 1770 1772 1773
        1774 1775 1783 1794 1796 1797 1798 1799 1800 1806 1809 1813 1818
        1822 1823 1825 1827 1828 1834 1837 1840 1849 1851 1855 1857 1860
        1861 1863 1864 1867 1868 1870 1871 1872 1874 1875 1877 1878 1886
        1890 1895 1896 1898 1899 1900 1901 1903 1904 1907 1911 1917 1918
        1919 1923 1929 1931 1937 1938 1941 1942 1944 1945 1947 1949 1950
        1953 1954 1955 1956 1957 1960 1961 1962 1963 1964 1972 1979 1988
        1990 1991 1992 1993 1995 1996 2004 2017 2023 2026 2027 2029 2035
        2046 2048 2050 2055 2060 2061 2065 2066 2067 2068 2069 2070 2073
        2077 2079 2082 2083 2085 2094 2099 2109 2113 2114 2115 2116 2120
        2122 2123 2132 2134 2136 2138 2139 2140 2141 2142 2143 2144 2150
        2157 2158 2166 2167 2173 2176 2179 2180 2181 2182 2183 2189 2190
        2195 2196 2204 2210 2213 2220 2228 2230 2232 2238 2240 2247 2254
        2255 2256 2264 2268 2274 2277 2281 2282 2291 2292 2300 2303 2307
        2311 2314 2327 2331 2333 2334 2336 2337 2338 2340 2342 2348 2349
        2354 2361 2362 2364 2367 2370 2374 2376 2379 2380 2381 2382 2383
        2384 2386 2390 2391 2395 2398 2399 2400 2401 2402 2405 2418 2420
        2424 2432 2434 2436 2438 2439 2444 2451 2457 2458 2459 2460 2462
        2463 2464 2465 2466 2468 2469 2471 2472 2473 2478 2479 2481 2483
        2486 2488 2495 2506 2514 2515 2522 2524 2525 2530 2533 2537 2539
        2542 2545 2548 2550 2551 2553 2564 2572 2573 2577 2579 2580 2582
        2588 2590 2597 2600 2601 2603 2604 2605 2606 2608 2621 2630 2632
        2636 2639 2640 2641 2645 2646 2650 2653 2659 2660 2662 2664 2667
        2668 2669 2671 2672 2674 2675 2676 2677 2679 2681 2682 2683 2684
        2685 2686 2693 2694 2696 2698 2699 2701 2703 2704 2705 2706 2707
        2708 2713 2714 2715 2721 2722 2727 2728 2732 2733 2734 2743 2746
        2747 2748 2749 2756 2757 2761 2766 2767 2768 2776 2784 2785 2786
        2788 2789 2791 2792 2796 2804 2805 2806 2807 2808 2811 2814 2815
        2816 2817 2827 2830 2836 2837 2841 2842 2844 2854 2855 2856 2860
        2861 2862 2866 2868 2871 2877 2878 2879 2881 2886 2900 2902 2904
        2907 2915 2917 2920 2923 2933 2946 2947 2948 2950 2951 2968 2971
        2985 2989 2995 2996 3003 3005 3012 3020 3025 3040 3042 3043 3045
        3046 3049 3053 3054 3055 3056 3057 3065 3068 3076 3077 3078 3079
        3080 3082 3086 3090 3093 3098 3099 3100 3102 3103 3104 3107 3125
        3127 3130 3131 3136 3141 3142 3144 3146 3147 3149 3151 3155 3156
        3162 3163 3164 3166 3174 3175 3176 3177 3179 3180 3181 3193 3194
        3198 3200 3201 3202 3203 3204 3206 3207 3208 3209 3220 3224 3228
        3229 3231 3242 3258 3259 3266 3269 3273 3274 3275 3277 3278 3282
        3284 3285 3288 3293 3297 3299 3304 3310 3311 3314 3317 3324 3327
        3330 3331 3337 3341 3348 3350 3352 3353 3354 3357 3364 3365 3366
        3375 3378 3380 3384 3385 3386 3388 3400 3403 3404 3405 3406 3408
        3411 3414 3416 3417 3418 3420 3421 3422 3423 3433 3434 3440 3455
        3458 3459 3460 3461 3462 3463 3464 3468 3470 3474 3475 3478 3487
        3491 3492 3497 3498 3499 3502 3503 3509 3510 3511 3512 3517 3522
        3525 3527 3528 3532 3548 3554 3562 3567 3569 3573 3574 3575 3583
        3593 3595 3600 3603 3606 3607 3608 3610 3614 3617 3623 3626 3629
        3631 3635 3636 3637 3640 3646 3675 3676 3679 3680 3681 3684 3687
        3688 3692 3698 3700 3706 3713 3716 3720 3730 3731 3733 3736 3737
        3741 3743 3744 3745 3748 3749 3750 3753 3755 3756 3759 3760 3761
        3763 3768 3770 3771 3775 3776 3779 3782 3783 3786 3790 3791 3793
        3803 3804 3813 3814 3815 3818 3820 3823 3824 3830 3833 3835 3840
        3841 3842 3843 3844 3845 3846 3848 3849 3850 3856 3857 3860 3862
        3865 3870 3872 3873 3876 3877 3878 3882 3883 3893 3898 3899 3900
        3901 3919 3928 3943 3945 3946 3947 3948 3949 3950 3954 3957 3963
        3977 3978 3980 3983 3988 3996 3999 4008 4009 4016 4021 4023 4024
        4044 4060 4085 4086 4087 4103 4108 4114 4121 4130 4134 4136 4142
        4146 4148 4150 4152 4154 4155 4167 4168 4170 4172 4173 4176 4179
        4183 4186 4190 4191 4192 4201 4216 4217 4219 4244 4245 4247 4251
        4253 4254 4255 4257 4259 4260 4264 4265 4272 4287 4290 4292 4293
        4295 4297 4298 4311 4315 4316 4319 4320 4321 4323 4325 4326 4327
        4331 4335 4336 4353 4354 4357 4358 4359 4360 4364 4366 4370 4376
        4381 4382 4384 4396 4400 4406 4407 4411 4412 4419 4420 4423 4431
        4434 4443 4444 4446 4462 4464 4476 4478 4480 4483 4500 4502 4524
        4525 4527 4528 4534 4539 4543 4547 4553 4562 4563 4566 4567 4569
        4572 4573 4574 4575 4576 4577 4579 4583 4584 4586 4598 4602 4608
        4609 4610 4611 4612 4613 4614 4615 4620 4622 4623 4625 4637 4643
        4655 4656 4660 4683 4684 4685 4687 4691 4693 4694 4695 4696 4709
        4712 4713 4714 4715 4720 4723 4724 4725 4728 4729 4730 4731 4732
        4738 4739 4758 4761 4765 4769 4773 4774 4783 4784 4788 4789 4791
        4793 4795 4796 4798 4801 4802 4808 4811 4812 4814 4815 4816 4824
        4826 4829 4831 4833 4842 4843 4845 4856 4862 4865 4866 4875 4878
        4879 4885 4899 4902 4903 4906 4907 4915 4922 4923 4924 4932 4935
        4937 4938 4947 4956 4958 4959 4962 4965 4966 4973 4982 4984 4986
        4990 5011 5022 5023 5029 5050 5059 5060 5061 5062 5063 5066 5070
        5078 5082 5083 5085 5090 5096 5099 5114 5115 5116 5120 5124 5127
        5128 5139 5143 5151 5162 5169 5175 5183 5184 5187 5193 5206 5208
        5211 5216 5218 5219 5221 5223 5227 5228 5229 5231 5241 5243 5249
        5253 5255 5259 5261 5263 5264 5282 5283 5284 5285 5286 5288 5291
        5293 5294 5295 5296 5298 5301 5304 5305 5308 5309 5310 5311 5314
        5316 5317 5318 5319 5320 5321 5322 5329 5330 5331 5334 5335 5338
        5357 5360 5361 5362 5367 5369 5383 5385 5386 5392 5396 5397 5399
        5401 5405 5407 5408 5409 5413 5416 5417 5419 5420 5423 5427 5435
        5440 5441 5444 5449 5450 5451 5452 5456 5458 5459 5461 5462 5467
        5469 5470 5476 5477 5478 5485 5495 5502 5516 5517 5519 5522 5530
        5532 5534 5542 5544 5545 5546 5547 5548 5552 5553 5554 5555 5562
        5563 5564 5570 5571 5579 5581 5585 5586 5587 5592 5593 5596 5604
        5605 5609 5611 5612 5617 5623 5624 5627 5630 5631 5637 5641 5642
        5644 5654 5657 5658 5665 5673 5681 5683 5686 5687 5694 5698 5699
        5726 5728 5745 5746 5747 5749 5750 5751 5752 5753 5756 5757 5758
        5782 5791 5800 5801 5812 5822 5825 5841 5848 5856 5860 5863 5870
        5874 5879 5880 5884 5887 5897 5898 5900 5902 5924 5926 5927 5931
        5932 5933 5938 5939 5941 5942 5946 5947 5953 5958 5959 5963 5964
        5970 5972 5974 5976 5982 5986 5988 5989 5996 6004 6009 6012 6018
        6020 6022 6024 6030 6031 6032 6043 6049 6050 6051 6054 6063 6064
        6065 6066 6067 6068 6071 6089 6095 6107 6108 6109 6122 6123 6124
        6128 6131 6133 6139 6143 6149 6159 6178 6183 6188 6203 6207 6212
        6216 6217 6221 6231 6238 6244 6246 6258 6266 6272 6273 6278 6284
        6285 6291 6299 6300 6302 6303 6305 6309 6314 6316 6320 6326 6327
        6328 6340 6354 6357 6358 6361 6364 6372 6373 6377 6397 6398 6399
        6403 6404 6409 6425 6429 6433 6438 6439 6440 6441 6454 6459 6463
        6469 6472 6481 6486 6505 6509 6514 6515 6517 6523 6524 6526 6527
        6528 6540 6541 6560 6561 6572 6576 6579 6580 6581 6587 6595 6596
        6597 6605 6626 6632 6636 6638 6641 6645 6660 6692 6701 6713 6722
        6728 6729 6736 6739 6740 6748 6752 6754 6757 6760 6765 6782 6783
        6792 6797 6813 6814 6815 6817 6821 6823 6824 6833 6835 6836 6842
        6845 6846 6875 6878 6883 6923 6924 6939 6956 6963 6964 6969 6977
        6982 6983 6993 6994 6995 6998 7000 7025 7026 7028 7030 7051 7059
        7072 7101 7109 7115 7135 7148 7151 7152 7154 7155 7159 7161 7162
        7180 7181 7182 7183 7185 7186 7187 7195 7205 7207 7208 7209 7210
        7211 7214 7215 7216 7226 7230 7231 7233 7235 7239 7242 7259 7263
        7270 7272 7274 7289 7290 7291 7292 7298 7299 7308 7309 7315 7328
        7336 7339 7346 7354 7358 7373 7382 7387 7395 7401 7405 7411 7417
        7422 7424 7426 7434 7437 7438 7439 7442 7451 7462 7478 7480 7481
        7483 7484 7485 7487 7488 7489 7490 7491 7509 7515 7516 7517 7542
        7546 7549 7562 7567 7570 7586 7588 7591 7592 7602 7604 7612 7620
        7623 7626 7627 7628 7630 7633 7639 7654 7679 7680 7709 7710 7712
        7713 7715 7724 7729 7730 7731 7732 7734 7747 7748 7751 7752 7760
        7769 7770 7771 7772 7773 7780 7791 7792 7797 7802 7803 7814 7815
        7818 7831 7838 7840 7854 7855 7856 7858 7860 7861 7863 7864 7868
        7871 7879 7884 7889 7892 7926 7927 7935 7936 7938 7945 7961 7962
        7964 7965 7975 7981 7984 7986 7987 7988 7990 7991 7992 8044 8055
        8060 8062 8074 8083 8085 8086 8087 8089 8098 8111 8112 8113 8116
        8118 8119 8126 8127 8134 8135 8136 8138 8139 8141 8144 8146 8147
        8152 8161 8163 8165 8168 8170 8179 8182 8183 8184 8190 8191 8192
        8193 8195 8196 8201 8202 8209 8221 8222 8227 8236 8238 8239 8241
        8243 8244 8246 8247 8250 8256 8257 8267 8268 8272 8273 8287 8294
        8304 8310 8313 8322 8324 8325 8333 8334 8337 8341 8356 8360 8361
        8366 8371 8372 8373 8380 8382 8383 8384 8385 8387 8388 8389 8390
        8393 8396 8402 8404 8405 8409 8412 8419 8421 8423 8428 8429 8436
        8437 8441 8449 8450 8451 8454 8455 8458 8460 8461 8463 8478 8480
        8486 8494 8495 8496 8497 8498 8499 8500 8501 8502 8506 8507 8508
        8509 8510 8511 8512 8513 8514 8519 8521 8527 8528 8535 8548 8552
        8567 8575 8576 8578 8609 8615 8630 8636 8655 8673 8679 8692 8710
        8717 8722 8723 8726 8732 8735 8736 8740 8745 8751 8755 8769 8771
        8772 8773 8774 8775 8782 8796 8797 8799 8801 8804 8805 8806 8807
        8808 8842 8854 8861 8876 8877 8881 8908 8917 8918 8921 8933 8934
        8935 8936 8937 8946 8948 8971 8972 8980 8987 9028 9030 9031 9032
        9039 9047 9062 9063 9079 9080 9100 9102 9103 9111 9113 9114 9117
        9120 9136 9141 9150 9163 9169 9170 9179 9182 9183 9185 9186 9187
        9206 9207 9208 9209 9210 9220 9222 9223 9224 9233 9239 9240 9242
        9244 9261 9270 9272 9276 9297 9298 9335 9345 9346 9353 9354 9364
        9365 9366 9370 9376 9378 9387 9392 9398 9411 9412 9416 9419 9420
        9421 9427 9428 9429 9430 9432 9433 9444 9447 9451 9452 9453 9454
        9460 9461 9470 9471 9472 9474 9476 9486 9488 9495 9496 9499 9500
        9509 9514 9518 9519 9520 9565 9569 9571 9575 9580 9582 9591 9604
        9605 9607 9613 9623 9670 9673 9681 9682 9683 9698 9699 9702 9703
        9706 9707 9711 9717 9718 9719 9720 9739 9749 9756 9761 9776 9777
        9781 9783 9787 9788 9790 9793 9805 9807 9814 9815 9824 9827 9828
        9831 9834 9840 9842 9849 9854 9865 9866 9867 9876 9884 9885 9889
        9890 9898 9907 9908 9910 9916 9922 9923 9934 9936 9939 9943 9946
        9949 9957 9960 9969 9970 9972 9974

  Surfaces:

INSTANCE LEVEL
  node sets:
    Instance name: PART-1-1
      node set name: SET-1
        number of nodes: 2604
        nodes: 
          1 2 3 4 5 6 7 8 9 10 11 12 13 14 15 16 17 18 19 20 21 22 23 24
          25 26 27 28 29 30 31 32 33 34 35 36 37 38 39 40 41 42 43 44 45
          46 47 48 49 50 51 52 53 54 55 56 57 58 59 60 61 62 63 64 65 66
          67 68 69 70 71 72 73 74 75 76 77 78 79 80 81 82 83 84 85 86 87
          88 89 90 91 92 93 94 95 96 97 98 99 100 101 102 103 104 105
          106 107 108 109 110 111 112 113 114 115 116 117 118 119 120
          121 122 123 124 125 126 127 128 129 130 131 132 133 134 135
          136 137 138 139 140 141 142 143 144 145 146 147 148 149 150
          151 152 153 154 155 156 157 158 159 160 161 162 163 164 165
          166 167 168 169 170 171 172 173 174 175 176 177 178 179 180
          181 182 183 184 185 186 187 188 189 190 191 192 193 194 195
          196 197 198 199 200 201 202 203 204 205 206 207 208 209 210
          211 212 213 214 215 216 217 218 219 220 221 222 223 224 225
          226 227 228 229 230 231 232 233 234 235 236 237 238 239 240
          241 242 243 244 245 246 247 248 249 250 251 252 253 254 255
          256 257 258 259 260 261 262 263 264 265 266 267 268 269 270
          271 272 273 274 275 276 277 278 279 280 281 282 283 284 285
          286 287 288 289 290 291 292 293 294 295 296 297 298 299 300
          301 302 303 304 305 306 307 308 309 310 311 312 313 314 315
          316 317 318 319 320 321 322 323 324 325 326 327 328 329 330
          331 332 333 334 335 336 337 338 339 340 341 342 343 344 345
          346 347 348 349 350 351 352 353 354 355 356 357 358 359 360
          361 362 363 364 365 366 367 368 369 370 371 372 373 374 375
          376 377 378 379 380 381 382 383 384 385 386 387 388 389 390
          391 392 393 394 395 396 397 398 399 400 401 402 403 404 405
          406 407 408 409 410 411 412 413 414 415 416 417 418 419 420
          421 422 423 424 425 426 427 428 429 430 431 432 433 434 435
          436 437 438 439 440 441 442 443 444 445 446 447 448 449 450
          451 452 453 454 455 456 457 458 459 460 461 462 463 464 465
          466 467 468 469 470 471 472 473 474 475 476 477 478 479 480
          481 482 483 484 485 486 487 488 489 490 491 492 493 494 495
          496 497 498 499 500 501 502 503 504 505 506 507 508 509 510
          511 512 513 514 515 516 517 518 519 520 521 522 523 524 525
          526 527 528 529 530 531 532 533 534 535 536 537 538 539 540
          541 542 543 544 545 546 547 548 549 550 551 552 553 554 555
          556 557 558 559 560 561 562 563 564 565 566 567 568 569 570
          571 572 573 574 575 576 577 578 579 580 581 582 583 584 585
          586 587 588 589 590 591 592 593 594 595 596 597 598 599 600
          601 602 603 604 605 606 607 608 609 610 611 612 613 614 615
          616 617 618 619 620 621 622 623 624 625 626 627 628 629 630
          631 632 633 634 635 636 637 638 639 640 641 642 643 644 645
          646 647 648 649 650 651 652 653 654 655 656 657 658 659 660
          661 662 663 664 665 666 667 668 669 670 671 672 673 674 675
          676 677 678 679 680 681 682 683 684 685 686 687 688 689 690
          691 692 693 694 695 696 697 698 699 700 701 702 703 704 705
          706 707 708 709 710 711 712 713 714 715 716 717 718 719 720
          721 722 723 724 725 726 727 728 729 730 731 732 733 734 735
          736 737 738 739 740 741 742 743 744 745 746 747 748 749 750
          751 752 753 754 755 756 757 758 759 760 761 762 763 764 765
          766 767 768 769 770 771 772 773 774 775 776 777 778 779 780
          781 782 783 784 785 786 787 788 789 790 791 792 793 794 795
          796 797 798 799 800 801 802 803 804 805 806 807 808 809 810
          811 812 813 814 815 816 817 818 819 820 821 822 823 824 825
          826 827 828 829 830 831 832 833 834 835 836 837 838 839 840
          841 842 843 844 845 846 847 848 849 850 851 852 853 854 855
          856 857 858 859 860 861 862 863 864 865 866 867 868 869 870
          871 872 873 874 875 876 877 878 879 880 881 882 883 884 885
          886 887 888 889 890 891 892 893 894 895 896 897 898 899 900
          901 902 903 904 905 906 907 908 909 910 911 912 913 914 915
          916 917 918 919 920 921 922 923 924 925 926 927 928 929 930
          931 932 933 934 935 936 937 938 939 940 941 942 943 944 945
          946 947 948 949 950 951 952 953 954 955 956 957 958 959 960
          961 962 963 964 965 966 967 968 969 970 971 972 973 974 975
          976 977 978 979 980 981 982 983 984 985 986 987 988 989 990
          991 992 993 994 995 996 997 998 999 1000 1001 1002 1003 1004
          1005 1006 1007 1008 1009 1010 1011 1012 1013 1014 1015 1016
          1017 1018 1019 1020 1021 1022 1023 1024 1025 1026 1027 1028
          1029 1030 1031 1032 1033 1034 1035 1036 1037 1038 1039 1040
          1041 1042 1043 1044 1045 1046 1047 1048 1049 1050 1051 1052
          1053 1054 1055 1056 1057 1058 1059 1060 1061 1062 1063 1064
          1065 1066 1067 1068 1069 1070 1071 1072 1073 1074 1075 1076
          1077 1078 1079 1080 1081 1082 1083 1084 1085 1086 1087 1088
          1089 1090 1091 1092 1093 1094 1095 1096 1097 1098 1099 1100
          1101 1102 1103 1104 1105 1106 1107 1108 1109 1110 1111 1112
          1113 1114 1115 1116 1117 1118 1119 1120 1121 1122 1123 1124
          1125 1126 1127 1128 1129 1130 1131 1132 1133 1134 1135 1136
          1137 1138 1139 1140 1141 1142 1143 1144 1145 1146 1147 1148
          1149 1150 1151 1152 1153 1154 1155 1156 1157 1158 1159 1160
          1161 1162 1163 1164 1165 1166 1167 1168 1169 1170 1171 1172
          1173 1174 1175 1176 1177 1178 1179 1180 1181 1182 1183 1184
          1185 1186 1187 1188 1189 1190 1191 1192 1193 1194 1195 1196
          1197 1198 1199 1200 1201 1202 1203 1204 1205 1206 1207 1208
          1209 1210 1211 1212 1213 1214 1215 1216 1217 1218 1219 1220
          1221 1222 1223 1224 1225 1226 1227 1228 1229 1230 1231 1232
          1233 1234 1235 1236 1237 1238 1239 1240 1241 1242 1243 1244
          1245 1246 1247 1248 1249 1250 1251 1252 1253 1254 1255 1256
          1257 1258 1259 1260 1261 1262 1263 1264 1265 1266 1267 1268
          1269 1270 1271 1272 1273 1274 1275 1276 1277 1278 1279 1280
          1281 1282 1283 1284 1285 1286 1287 1288 1289 1290 1291 1292
          1293 1294 1295 1296 1297 1298 1299 1300 1301 1302 1303 1304
          1305 1306 1307 1308 1309 1310 1311 1312 1313 1314 1315 1316
          1317 1318 1319 1320 1321 1322 1323 1324 1325 1326 1327 1328
          1329 1330 1331 1332 1333 1334 1335 1336 1337 1338 1339 1340
          1341 1342 1343 1344 1345 1346 1347 1348 1349 1350 1351 1352
          1353 1354 1355 1356 1357 1358 1359 1360 1361 1362 1363 1364
          1365 1366 1367 1368 1369 1370 1371 1372 1373 1374 1375 1376
          1377 1378 1379 1380 1381 1382 1383 1384 1385 1386 1387 1388
          1389 1390 1391 1392 1393 1394 1395 1396 1397 1398 1399 1400
          1401 1402 1403 1404 1405 1406 1407 1408 1409 1410 1411 1412
          1413 1414 1415 1416 1417 1418 1419 1420 1421 1422 1423 1424
          1425 1426 1427 1428 1429 1430 1431 1432 1433 1434 1435 1436
          1437 1438 1439 1440 1441 1442 1443 1444 1445 1446 1447 1448
          1449 1450 1451 1452 1453 1454 1455 1456 1457 1458 1459 1460
          1461 1462 1463 1464 1465 1466 1467 1468 1469 1470 1471 1472
          1473 1474 1475 1476 1477 1478 1479 1480 1481 1482 1483 1484
          1485 1486 1487 1488 1489 1490 1491 1492 1493 1494 1495 1496
          1497 1498 1499 1500 1501 1502 1503 1504 1505 1506 1507 1508
          1509 1510 1511 1512 1513 1514 1515 1516 1517 1518 1519 1520
          1521 1522 1523 1524 1525 1526 1527 1528 1529 1530 1531 1532
          1533 1534 1535 1536 1537 1538 1539 1540 1541 1542 1543 1544
          1545 1546 1547 1548 1549 1550 1551 1552 1553 1554 1555 1556
          1557 1558 1559 1560 1561 1562 1563 1564 1565 1566 1567 1568
          1569 1570 1571 1572 1573 1574 1575 1576 1577 1578 1579 1580
          1581 1582 1583 1584 1585 1586 1587 1588 1589 1590 1591 1592
          1593 1594 1595 1596 1597 1598 1599 1600 1601 1602 1603 1604
          1605 1606 1607 1608 1609 1610 1611 1612 1613 1614 1615 1616
          1617 1618 1619 1620 1621 1622 1623 1624 1625 1626 1627 1628
          1629 1630 1631 1632 1633 1634 1635 1636 1637 1638 1639 1640
          1641 1642 1643 1644 1645 1646 1647 1648 1649 1650 1651 1652
          1653 1654 1655 1656 1657 1658 1659 1660 1661 1662 1663 1664
          1665 1666 1667 1668 1669 1670 1671 1672 1673 1674 1675 1676
          1677 1678 1679 1680 1681 1682 1683 1684 1685 1686 1687 1688
          1689 1690 1691 1692 1693 1694 1695 1696 1697 1698 1699 1700
          1701 1702 1703 1704 1705 1706 1707 1708 1709 1710 1711 1712
          1713 1714 1715 1716 1717 1718 1719 1720 1721 1722 1723 1724
          1725 1726 1727 1728 1729 1730 1731 1732 1733 1734 1735 1736
          1737 1738 1739 1740 1741 1742 1743 1744 1745 1746 1747 1748
          1749 1750 1751 1752 1753 1754 1755 1756 1757 1758 1759 1760
          1761 1762 1763 1764 1765 1766 1767 1768 1769 1770 1771 1772
          1773 1774 1775 1776 1777 1778 1779 1780 1781 1782 1783 1784
          1785 1786 1787 1788 1789 1790 1791 1792 1793 1794 1795 1796
          1797 1798 1799 1800 1801 1802 1803 1804 1805 1806 1807 1808
          1809 1810 1811 1812 1813 1814 1815 1816 1817 1818 1819 1820
          1821 1822 1823 1824 1825 1826 1827 1828 1829 1830 1831 1832
          1833 1834 1835 1836 1837 1838 1839 1840 1841 1842 1843 1844
          1845 1846 1847 1848 1849 1850 1851 1852 1853 1854 1855 1856
          1857 1858 1859 1860 1861 1862 1863 1864 1865 1866 1867 1868
          1869 1870 1871 1872 1873 1874 1875 1876 1877 1878 1879 1880
          1881 1882 1883 1884 1885 1886 1887 1888 1889 1890 1891 1892
          1893 1894 1895 1896 1897 1898 1899 1900 1901 1902 1903 1904
          1905 1906 1907 1908 1909 1910 1911 1912 1913 1914 1915 1916
          1917 1918 1919 1920 1921 1922 1923 1924 1925 1926 1927 1928
          1929 1930 1931 1932 1933 1934 1935 1936 1937 1938 1939 1940
          1941 1942 1943 1944 1945 1946 1947 1948 1949 1950 1951 1952
          1953 1954 1955 1956 1957 1958 1959 1960 1961 1962 1963 1964
          1965 1966 1967 1968 1969 1970 1971 1972 1973 1974 1975 1976
          1977 1978 1979 1980 1981 1982 1983 1984 1985 1986 1987 1988
          1989 1990 1991 1992 1993 1994 1995 1996 1997 1998 1999 2000
          2001 2002 2003 2004 2005 2006 2007 2008 2009 2010 2011 2012
          2013 2014 2015 2016 2017 2018 2019 2020 2021 2022 2023 2024
          2025 2026 2027 2028 2029 2030 2031 2032 2033 2034 2035 2036
          2037 2038 2039 2040 2041 2042 2043 2044 2045 2046 2047 2048
          2049 2050 2051 2052 2053 2054 2055 2056 2057 2058 2059 2060
          2061 2062 2063 2064 2065 2066 2067 2068 2069 2070 2071 2072
          2073 2074 2075 2076 2077 2078 2079 2080 2081 2082 2083 2084
          2085 2086 2087 2088 2089 2090 2091 2092 2093 2094 2095 2096
          2097 2098 2099 2100 2101 2102 2103 2104 2105 2106 2107 2108
          2109 2110 2111 2112 2113 2114 2115 2116 2117 2118 2119 2120
          2121 2122 2123 2124 2125 2126 2127 2128 2129 2130 2131 2132
          2133 2134 2135 2136 2137 2138 2139 2140 2141 2142 2143 2144
          2145 2146 2147 2148 2149 2150 2151 2152 2153 2154 2155 2156
          2157 2158 2159 2160 2161 2162 2163 2164 2165 2166 2167 2168
          2169 2170 2171 2172 2173 2174 2175 2176 2177 2178 2179 2180
          2181 2182 2183 2184 2185 2186 2187 2188 2189 2190 2191 2192
          2193 2194 2195 2196 2197 2198 2199 2200 2201 2202 2203 2204
          2205 2206 2207 2208 2209 2210 2211 2212 2213 2214 2215 2216
          2217 2218 2219 2220 2221 2222 2223 2224 2225 2226 2227 2228
          2229 2230 2231 2232 2233 2234 2235 2236 2237 2238 2239 2240
          2241 2242 2243 2244 2245 2246 2247 2248 2249 2250 2251 2252
          2253 2254 2255 2256 2257 2258 2259 2260 2261 2262 2263 2264
          2265 2266 2267 2268 2269 2270 2271 2272 2273 2274 2275 2276
          2277 2278 2279 2280 2281 2282 2283 2284 2285 2286 2287 2288
          2289 2290 2291 2292 2293 2294 2295 2296 2297 2298 2299 2300
          2301 2302 2303 2304 2305 2306 2307 2308 2309 2310 2311 2312
          2313 2314 2315 2316 2317 2318 2319 2320 2321 2322 2323 2324
          2325 2326 2327 2328 2329 2330 2331 2332 2333 2334 2335 2336
          2337 2338 2339 2340 2341 2342 2343 2344 2345 2346 2347 2348
          2349 2350 2351 2352 2353 2354 2355 2356 2357 2358 2359 2360
          2361 2362 2363 2364 2365 2366 2367 2368 2369 2370 2371 2372
          2373 2374 2375 2376 2377 2378 2379 2380 2381 2382 2383 2384
          2385 2386 2387 2388 2389 2390 2391 2392 2393 2394 2395 2396
          2397 2398 2399 2400 2401 2402 2403 2404 2405 2406 2407 2408
          2409 2410 2411 2412 2413 2414 2415 2416 2417 2418 2419 2420
          2421 2422 2423 2424 2425 2426 2427 2428 2429 2430 2431 2432
          2433 2434 2435 2436 2437 2438 2439 2440 2441 2442 2443 2444
          2445 2446 2447 2448 2449 2450 2451 2452 2453 2454 2455 2456
          2457 2458 2459 2460 2461 2462 2463 2464 2465 2466 2467 2468
          2469 2470 2471 2472 2473 2474 2475 2476 2477 2478 2479 2480
          2481 2482 2483 2484 2485 2486 2487 2488 2489 2490 2491 2492
          2493 2494 2495 2496 2497 2498 2499 2500 2501 2502 2503 2504
          2505 2506 2507 2508 2509 2510 2511 2512 2513 2514 2515 2516
          2517 2518 2519 2520 2521 2522 2523 2524 2525 2526 2527 2528
          2529 2530 2531 2532 2533 2534 2535 2536 2537 2538 2539 2540
          2541 2542 2543 2544 2545 2546 2547 2548 2549 2550 2551 2552
          2553 2554 2555 2556 2557 2558 2559 2560 2561 2562 2563 2564
          2565 2566 2567 2568 2569 2570 2571 2572 2573 2574 2575 2576
          2577 2578 2579 2580 2581 2582 2583 2584 2585 2586 2587 2588
          2589 2590 2591 2592 2593 2594 2595 2596 2597 2598 2599 2600
          2601 2602 2603 2604

  element sets:
    Instance name: PART-1-1
      element set name: SET-1
        number of elements: 9994
        elements: 
          1 2 3 4 5 6 7 8 9 10 11 12 13 14 15 16 17 18 19 20 21 22 23 24
          25 26 27 28 29 30 31 32 33 34 35 36 37 38 39 40 41 42 43 44 45
          46 47 48 49 50 51 52 53 54 55 56 57 58 59 60 61 62 63 64 65 66
          67 68 69 70 71 72 73 74 75 76 77 78 79 80 81 82 83 84 85 86 87
          88 89 90 91 92 93 94 95 96 97 98 99 100 101 102 103 104 105
          106 107 108 109 110 111 112 113 114 115 116 117 118 119 120
          121 122 123 124 125 126 127 128 129 130 131 132 133 134 135
          136 137 138 139 140 141 142 143 144 145 146 147 148 149 150
          151 152 153 154 155 156 157 158 159 160 161 162 163 164 165
          166 167 168 169 170 171 172 173 174 175 176 177 178 179 180
          181 182 183 184 185 186 187 188 189 190 191 192 193 194 195
          196 197 198 199 200 201 202 203 204 205 206 207 208 209 210
          211 212 213 214 215 216 217 218 219 220 221 222 223 224 225
          226 227 228 229 230 231 232 233 234 235 236 237 238 239 240
          241 242 243 244 245 246 247 248 249 250 251 252 253 254 255
          256 257 258 259 260 261 262 263 264 265 266 267 268 269 270
          271 272 273 274 275 276 277 278 279 280 281 282 283 284 285
          286 287 288 289 290 291 292 293 294 295 296 297 298 299 300
          301 302 303 304 305 306 307 308 309 310 311 312 313 314 315
          316 317 318 319 320 321 322 323 324 325 326 327 328 329 330
          331 332 333 334 335 336 337 338 339 340 341 342 343 344 345
          346 347 348 349 350 351 352 353 354 355 356 357 358 359 360
          361 362 363 364 365 366 367 368 369 370 371 372 373 374 375
          376 377 378 379 380 381 382 383 384 385 386 387 388 389 390
          391 392 393 394 395 396 397 398 399 400 401 402 403 404 405
          406 407 408 409 410 411 412 413 414 415 416 417 418 419 420
          421 422 423 424 425 426 427 428 429 430 431 432 433 434 435
          436 437 438 439 440 441 442 443 444 445 446 447 448 449 450
          451 452 453 454 455 456 457 458 459 460 461 462 463 464 465
          466 467 468 469 470 471 472 473 474 475 476 477 478 479 480
          481 482 483 484 485 486 487 488 489 490 491 492 493 494 495
          496 497 498 499 500 501 502 503 504 505 506 507 508 509 510
          511 512 513 514 515 516 517 518 519 520 521 522 523 524 525
          526 527 528 529 530 531 532 533 534 535 536 537 538 539 540
          541 542 543 544 545 546 547 548 549 550 551 552 553 554 555
          556 557 558 559 560 561 562 563 564 565 566 567 568 569 570
          571 572 573 574 575 576 577 578 579 580 581 582 583 584 585
          586 587 588 589 590 591 592 593 594 595 596 597 598 599 600
          601 602 603 604 605 606 607 608 609 610 611 612 613 614 615
          616 617 618 619 620 621 622 623 624 625 626 627 628 629 630
          631 632 633 634 635 636 637 638 639 640 641 642 643 644 645
          646 647 648 649 650 651 652 653 654 655 656 657 658 659 660
          661 662 663 664 665 666 667 668 669 670 671 672 673 674 675
          676 677 678 679 680 681 682 683 684 685 686 687 688 689 690
          691 692 693 694 695 696 697 698 699 700 701 702 703 704 705
          706 707 708 709 710 711 712 713 714 715 716 717 718 719 720
          721 722 723 724 725 726 727 728 729 730 731 732 733 734 735
          736 737 738 739 740 741 742 743 744 745 746 747 748 749 750
          751 752 753 754 755 756 757 758 759 760 761 762 763 764 765
          766 767 768 769 770 771 772 773 774 775 776 777 778 779 780
          781 782 783 784 785 786 787 788 789 790 791 792 793 794 795
          796 797 798 799 800 801 802 803 804 805 806 807 808 809 810
          811 812 813 814 815 816 817 818 819 820 821 822 823 824 825
          826 827 828 829 830 831 832 833 834 835 836 837 838 839 840
          841 842 843 844 845 846 847 848 849 850 851 852 853 854 855
          856 857 858 859 860 861 862 863 864 865 866 867 868 869 870
          871 872 873 874 875 876 877 878 879 880 881 882 883 884 885
          886 887 888 889 890 891 892 893 894 895 896 897 898 899 900
          901 902 903 904 905 906 907 908 909 910 911 912 913 914 915
          916 917 918 919 920 921 922 923 924 925 926 927 928 929 930
          931 932 933 934 935 936 937 938 939 940 941 942 943 944 945
          946 947 948 949 950 951 952 953 954 955 956 957 958 959 960
          961 962 963 964 965 966 967 968 969 970 971 972 973 974 975
          976 977 978 979 980 981 982 983 984 985 986 987 988 989 990
          991 992 993 994 995 996 997 998 999 1000 1001 1002 1003 1004
          1005 1006 1007 1008 1009 1010 1011 1012 1013 1014 1015 1016
          1017 1018 1019 1020 1021 1022 1023 1024 1025 1026 1027 1028
          1029 1030 1031 1032 1033 1034 1035 1036 1037 1038 1039 1040
          1041 1042 1043 1044 1045 1046 1047 1048 1049 1050 1051 1052
          1053 1054 1055 1056 1057 1058 1059 1060 1061 1062 1063 1064
          1065 1066 1067 1068 1069 1070 1071 1072 1073 1074 1075 1076
          1077 1078 1079 1080 1081 1082 1083 1084 1085 1086 1087 1088
          1089 1090 1091 1092 1093 1094 1095 1096 1097 1098 1099 1100
          1101 1102 1103 1104 1105 1106 1107 1108 1109 1110 1111 1112
          1113 1114 1115 1116 1117 1118 1119 1120 1121 1122 1123 1124
          1125 1126 1127 1128 1129 1130 1131 1132 1133 1134 1135 1136
          1137 1138 1139 1140 1141 1142 1143 1144 1145 1146 1147 1148
          1149 1150 1151 1152 1153 1154 1155 1156 1157 1158 1159 1160
          1161 1162 1163 1164 1165 1166 1167 1168 1169 1170 1171 1172
          1173 1174 1175 1176 1177 1178 1179 1180 1181 1182 1183 1184
          1185 1186 1187 1188 1189 1190 1191 1192 1193 1194 1195 1196
          1197 1198 1199 1200 1201 1202 1203 1204 1205 1206 1207 1208
          1209 1210 1211 1212 1213 1214 1215 1216 1217 1218 1219 1220
          1221 1222 1223 1224 1225 1226 1227 1228 1229 1230 1231 1232
          1233 1234 1235 1236 1237 1238 1239 1240 1241 1242 1243 1244
          1245 1246 1247 1248 1249 1250 1251 1252 1253 1254 1255 1256
          1257 1258 1259 1260 1261 1262 1263 1264 1265 1266 1267 1268
          1269 1270 1271 1272 1273 1274 1275 1276 1277 1278 1279 1280
          1281 1282 1283 1284 1285 1286 1287 1288 1289 1290 1291 1292
          1293 1294 1295 1296 1297 1298 1299 1300 1301 1302 1303 1304
          1305 1306 1307 1308 1309 1310 1311 1312 1313 1314 1315 1316
          1317 1318 1319 1320 1321 1322 1323 1324 1325 1326 1327 1328
          1329 1330 1331 1332 1333 1334 1335 1336 1337 1338 1339 1340
          1341 1342 1343 1344 1345 1346 1347 1348 1349 1350 1351 1352
          1353 1354 1355 1356 1357 1358 1359 1360 1361 1362 1363 1364
          1365 1366 1367 1368 1369 1370 1371 1372 1373 1374 1375 1376
          1377 1378 1379 1380 1381 1382 1383 1384 1385 1386 1387 1388
          1389 1390 1391 1392 1393 1394 1395 1396 1397 1398 1399 1400
          1401 1402 1403 1404 1405 1406 1407 1408 1409 1410 1411 1412
          1413 1414 1415 1416 1417 1418 1419 1420 1421 1422 1423 1424
          1425 1426 1427 1428 1429 1430 1431 1432 1433 1434 1435 1436
          1437 1438 1439 1440 1441 1442 1443 1444 1445 1446 1447 1448
          1449 1450 1451 1452 1453 1454 1455 1456 1457 1458 1459 1460
          1461 1462 1463 1464 1465 1466 1467 1468 1469 1470 1471 1472
          1473 1474 1475 1476 1477 1478 1479 1480 1481 1482 1483 1484
          1485 1486 1487 1488 1489 1490 1491 1492 1493 1494 1495 1496
          1497 1498 1499 1500 1501 1502 1503 1504 1505 1506 1507 1508
          1509 1510 1511 1512 1513 1514 1515 1516 1517 1518 1519 1520
          1521 1522 1523 1524 1525 1526 1527 1528 1529 1530 1531 1532
          1533 1534 1535 1536 1537 1538 1539 1540 1541 1542 1543 1544
          1545 1546 1547 1548 1549 1550 1551 1552 1553 1554 1555 1556
          1557 1558 1559 1560 1561 1562 1563 1564 1565 1566 1567 1568
          1569 1570 1571 1572 1573 1574 1575 1576 1577 1578 1579 1580
          1581 1582 1583 1584 1585 1586 1587 1588 1589 1590 1591 1592
          1593 1594 1595 1596 1597 1598 1599 1600 1601 1602 1603 1604
          1605 1606 1607 1608 1609 1610 1611 1612 1613 1614 1615 1616
          1617 1618 1619 1620 1621 1622 1623 1624 1625 1626 1627 1628
          1629 1630 1631 1632 1633 1634 1635 1636 1637 1638 1639 1640
          1641 1642 1643 1644 1645 1646 1647 1648 1649 1650 1651 1652
          1653 1654 1655 1656 1657 1658 1659 1660 1661 1662 1663 1664
          1665 1666 1667 1668 1669 1670 1671 1672 1673 1674 1675 1676
          1677 1678 1679 1680 1681 1682 1683 1684 1685 1686 1687 1688
          1689 1690 1691 1692 1693 1694 1695 1696 1697 1698 1699 1700
          1701 1702 1703 1704 1705 1706 1707 1708 1709 1710 1711 1712
          1713 1714 1715 1716 1717 1718 1719 1720 1721 1722 1723 1724
          1725 1726 1727 1728 1729 1730 1731 1732 1733 1734 1735 1736
          1737 1738 1739 1740 1741 1742 1743 1744 1745 1746 1747 1748
          1749 1750 1751 1752 1753 1754 1755 1756 1757 1758 1759 1760
          1761 1762 1763 1764 1765 1766 1767 1768 1769 1770 1771 1772
          1773 1774 1775 1776 1777 1778 1779 1780 1781 1782 1783 1784
          1785 1786 1787 1788 1789 1790 1791 1792 1793 1794 1795 1796
          1797 1798 1799 1800 1801 1802 1803 1804 1805 1806 1807 1808
          1809 1810 1811 1812 1813 1814 1815 1816 1817 1818 1819 1820
          1821 1822 1823 1824 1825 1826 1827 1828 1829 1830 1831 1832
          1833 1834 1835 1836 1837 1838 1839 1840 1841 1842 1843 1844
          1845 1846 1847 1848 1849 1850 1851 1852 1853 1854 1855 1856
          1857 1858 1859 1860 1861 1862 1863 1864 1865 1866 1867 1868
          1869 1870 1871 1872 1873 1874 1875 1876 1877 1878 1879 1880
          1881 1882 1883 1884 1885 1886 1887 1888 1889 1890 1891 1892
          1893 1894 1895 1896 1897 1898 1899 1900 1901 1902 1903 1904
          1905 1906 1907 1908 1909 1910 1911 1912 1913 1914 1915 1916
          1917 1918 1919 1920 1921 1922 1923 1924 1925 1926 1927 1928
          1929 1930 1931 1932 1933 1934 1935 1936 1937 1938 1939 1940
          1941 1942 1943 1944 1945 1946 1947 1948 1949 1950 1951 1952
          1953 1954 1955 1956 1957 1958 1959 1960 1961 1962 1963 1964
          1965 1966 1967 1968 1969 1970 1971 1972 1973 1974 1975 1976
          1977 1978 1979 1980 1981 1982 1983 1984 1985 1986 1987 1988
          1989 1990 1991 1992 1993 1994 1995 1996 1997 1998 1999 2000
          2001 2002 2003 2004 2005 2006 2007 2008 2009 2010 2011 2012
          2013 2014 2015 2016 2017 2018 2019 2020 2021 2022 2023 2024
          2025 2026 2027 2028 2029 2030 2031 2032 2033 2034 2035 2036
          2037 2038 2039 2040 2041 2042 2043 2044 2045 2046 2047 2048
          2049 2050 2051 2052 2053 2054 2055 2056 2057 2058 2059 2060
          2061 2062 2063 2064 2065 2066 2067 2068 2069 2070 2071 2072
          2073 2074 2075 2076 2077 2078 2079 2080 2081 2082 2083 2084
          2085 2086 2087 2088 2089 2090 2091 2092 2093 2094 2095 2096
          2097 2098 2099 2100 2101 2102 2103 2104 2105 2106 2107 2108
          2109 2110 2111 2112 2113 2114 2115 2116 2117 2118 2119 2120
          2121 2122 2123 2124 2125 2126 2127 2128 2129 2130 2131 2132
          2133 2134 2135 2136 2137 2138 2139 2140 2141 2142 2143 2144
          2145 2146 2147 2148 2149 2150 2151 2152 2153 2154 2155 2156
          2157 2158 2159 2160 2161 2162 2163 2164 2165 2166 2167 2168
          2169 2170 2171 2172 2173 2174 2175 2176 2177 2178 2179 2180
          2181 2182 2183 2184 2185 2186 2187 2188 2189 2190 2191 2192
          2193 2194 2195 2196 2197 2198 2199 2200 2201 2202 2203 2204
          2205 2206 2207 2208 2209 2210 2211 2212 2213 2214 2215 2216
          2217 2218 2219 2220 2221 2222 2223 2224 2225 2226 2227 2228
          2229 2230 2231 2232 2233 2234 2235 2236 2237 2238 2239 2240
          2241 2242 2243 2244 2245 2246 2247 2248 2249 2250 2251 2252
          2253 2254 2255 2256 2257 2258 2259 2260 2261 2262 2263 2264
          2265 2266 2267 2268 2269 2270 2271 2272 2273 2274 2275 2276
          2277 2278 2279 2280 2281 2282 2283 2284 2285 2286 2287 2288
          2289 2290 2291 2292 2293 2294 2295 2296 2297 2298 2299 2300
          2301 2302 2303 2304 2305 2306 2307 2308 2309 2310 2311 2312
          2313 2314 2315 2316 2317 2318 2319 2320 2321 2322 2323 2324
          2325 2326 2327 2328 2329 2330 2331 2332 2333 2334 2335 2336
          2337 2338 2339 2340 2341 2342 2343 2344 2345 2346 2347 2348
          2349 2350 2351 2352 2353 2354 2355 2356 2357 2358 2359 2360
          2361 2362 2363 2364 2365 2366 2367 2368 2369 2370 2371 2372
          2373 2374 2375 2376 2377 2378 2379 2380 2381 2382 2383 2384
          2385 2386 2387 2388 2389 2390 2391 2392 2393 2394 2395 2396
          2397 2398 2399 2400 2401 2402 2403 2404 2405 2406 2407 2408
          2409 2410 2411 2412 2413 2414 2415 2416 2417 2418 2419 2420
          2421 2422 2423 2424 2425 2426 2427 2428 2429 2430 2431 2432
          2433 2434 2435 2436 2437 2438 2439 2440 2441 2442 2443 2444
          2445 2446 2447 2448 2449 2450 2451 2452 2453 2454 2455 2456
          2457 2458 2459 2460 2461 2462 2463 2464 2465 2466 2467 2468
          2469 2470 2471 2472 2473 2474 2475 2476 2477 2478 2479 2480
          2481 2482 2483 2484 2485 2486 2487 2488 2489 2490 2491 2492
          2493 2494 2495 2496 2497 2498 2499 2500 2501 2502 2503 2504
          2505 2506 2507 2508 2509 2510 2511 2512 2513 2514 2515 2516
          2517 2518 2519 2520 2521 2522 2523 2524 2525 2526 2527 2528
          2529 2530 2531 2532 2533 2534 2535 2536 2537 2538 2539 2540
          2541 2542 2543 2544 2545 2546 2547 2548 2549 2550 2551 2552
          2553 2554 2555 2556 2557 2558 2559 2560 2561 2562 2563 2564
          2565 2566 2567 2568 2569 2570 2571 2572 2573 2574 2575 2576
          2577 2578 2579 2580 2581 2582 2583 2584 2585 2586 2587 2588
          2589 2590 2591 2592 2593 2594 2595 2596 2597 2598 2599 2600
          2601 2602 2603 2604 2605 2606 2607 2608 2609 2610 2611 2612
          2613 2614 2615 2616 2617 2618 2619 2620 2621 2622 2623 2624
          2625 2626 2627 2628 2629 2630 2631 2632 2633 2634 2635 2636
          2637 2638 2639 2640 2641 2642 2643 2644 2645 2646 2647 2648
          2649 2650 2651 2652 2653 2654 2655 2656 2657 2658 2659 2660
          2661 2662 2663 2664 2665 2666 2667 2668 2669 2670 2671 2672
          2673 2674 2675 2676 2677 2678 2679 2680 2681 2682 2683 2684
          2685 2686 2687 2688 2689 2690 2691 2692 2693 2694 2695 2696
          2697 2698 2699 2700 2701 2702 2703 2704 2705 2706 2707 2708
          2709 2710 2711 2712 2713 2714 2715 2716 2717 2718 2719 2720
          2721 2722 2723 2724 2725 2726 2727 2728 2729 2730 2731 2732
          2733 2734 2735 2736 2737 2738 2739 2740 2741 2742 2743 2744
          2745 2746 2747 2748 2749 2750 2751 2752 2753 2754 2755 2756
          2757 2758 2759 2760 2761 2762 2763 2764 2765 2766 2767 2768
          2769 2770 2771 2772 2773 2774 2775 2776 2777 2778 2779 2780
          2781 2782 2783 2784 2785 2786 2787 2788 2789 2790 2791 2792
          2793 2794 2795 2796 2797 2798 2799 2800 2801 2802 2803 2804
          2805 2806 2807 2808 2809 2810 2811 2812 2813 2814 2815 2816
          2817 2818 2819 2820 2821 2822 2823 2824 2825 2826 2827 2828
          2829 2830 2831 2832 2833 2834 2835 2836 2837 2838 2839 2840
          2841 2842 2843 2844 2845 2846 2847 2848 2849 2850 2851 2852
          2853 2854 2855 2856 2857 2858 2859 2860 2861 2862 2863 2864
          2865 2866 2867 2868 2869 2870 2871 2872 2873 2874 2875 2876
          2877 2878 2879 2880 2881 2882 2883 2884 2885 2886 2887 2888
          2889 2890 2891 2892 2893 2894 2895 2896 2897 2898 2899 2900
          2901 2902 2903 2904 2905 2906 2907 2908 2909 2910 2911 2912
          2913 2914 2915 2916 2917 2918 2919 2920 2921 2922 2923 2924
          2925 2926 2927 2928 2929 2930 2931 2932 2933 2934 2935 2936
          2937 2938 2939 2940 2941 2942 2943 2944 2945 2946 2947 2948
          2949 2950 2951 2952 2953 2954 2955 2956 2957 2958 2959 2960
          2961 2962 2963 2964 2965 2966 2967 2968 2969 2970 2971 2972
          2973 2974 2975 2976 2977 2978 2979 2980 2981 2982 2983 2984
          2985 2986 2987 2988 2989 2990 2991 2992 2993 2994 2995 2996
          2997 2998 2999 3000 3001 3002 3003 3004 3005 3006 3007 3008
          3009 3010 3011 3012 3013 3014 3015 3016 3017 3018 3019 3020
          3021 3022 3023 3024 3025 3026 3027 3028 3029 3030 3031 3032
          3033 3034 3035 3036 3037 3038 3039 3040 3041 3042 3043 3044
          3045 3046 3047 3048 3049 3050 3051 3052 3053 3054 3055 3056
          3057 3058 3059 3060 3061 3062 3063 3064 3065 3066 3067 3068
          3069 3070 3071 3072 3073 3074 3075 3076 3077 3078 3079 3080
          3081 3082 3083 3084 3085 3086 3087 3088 3089 3090 3091 3092
          3093 3094 3095 3096 3097 3098 3099 3100 3101 3102 3103 3104
          3105 3106 3107 3108 3109 3110 3111 3112 3113 3114 3115 3116
          3117 3118 3119 3120 3121 3122 3123 3124 3125 3126 3127 3128
          3129 3130 3131 3132 3133 3134 3135 3136 3137 3138 3139 3140
          3141 3142 3143 3144 3145 3146 3147 3148 3149 3150 3151 3152
          3153 3154 3155 3156 3157 3158 3159 3160 3161 3162 3163 3164
          3165 3166 3167 3168 3169 3170 3171 3172 3173 3174 3175 3176
          3177 3178 3179 3180 3181 3182 3183 3184 3185 3186 3187 3188
          3189 3190 3191 3192 3193 3194 3195 3196 3197 3198 3199 3200
          3201 3202 3203 3204 3205 3206 3207 3208 3209 3210 3211 3212
          3213 3214 3215 3216 3217 3218 3219 3220 3221 3222 3223 3224
          3225 3226 3227 3228 3229 3230 3231 3232 3233 3234 3235 3236
          3237 3238 3239 3240 3241 3242 3243 3244 3245 3246 3247 3248
          3249 3250 3251 3252 3253 3254 3255 3256 3257 3258 3259 3260
          3261 3262 3263 3264 3265 3266 3267 3268 3269 3270 3271 3272
          3273 3274 3275 3276 3277 3278 3279 3280 3281 3282 3283 3284
          3285 3286 3287 3288 3289 3290 3291 3292 3293 3294 3295 3296
          3297 3298 3299 3300 3301 3302 3303 3304 3305 3306 3307 3308
          3309 3310 3311 3312 3313 3314 3315 3316 3317 3318 3319 3320
          3321 3322 3323 3324 3325 3326 3327 3328 3329 3330 3331 3332
          3333 3334 3335 3336 3337 3338 3339 3340 3341 3342 3343 3344
          3345 3346 3347 3348 3349 3350 3351 3352 3353 3354 3355 3356
          3357 3358 3359 3360 3361 3362 3363 3364 3365 3366 3367 3368
          3369 3370 3371 3372 3373 3374 3375 3376 3377 3378 3379 3380
          3381 3382 3383 3384 3385 3386 3387 3388 3389 3390 3391 3392
          3393 3394 3395 3396 3397 3398 3399 3400 3401 3402 3403 3404
          3405 3406 3407 3408 3409 3410 3411 3412 3413 3414 3415 3416
          3417 3418 3419 3420 3421 3422 3423 3424 3425 3426 3427 3428
          3429 3430 3431 3432 3433 3434 3435 3436 3437 3438 3439 3440
          3441 3442 3443 3444 3445 3446 3447 3448 3449 3450 3451 3452
          3453 3454 3455 3456 3457 3458 3459 3460 3461 3462 3463 3464
          3465 3466 3467 3468 3469 3470 3471 3472 3473 3474 3475 3476
          3477 3478 3479 3480 3481 3482 3483 3484 3485 3486 3487 3488
          3489 3490 3491 3492 3493 3494 3495 3496 3497 3498 3499 3500
          3501 3502 3503 3504 3505 3506 3507 3508 3509 3510 3511 3512
          3513 3514 3515 3516 3517 3518 3519 3520 3521 3522 3523 3524
          3525 3526 3527 3528 3529 3530 3531 3532 3533 3534 3535 3536
          3537 3538 3539 3540 3541 3542 3543 3544 3545 3546 3547 3548
          3549 3550 3551 3552 3553 3554 3555 3556 3557 3558 3559 3560
          3561 3562 3563 3564 3565 3566 3567 3568 3569 3570 3571 3572
          3573 3574 3575 3576 3577 3578 3579 3580 3581 3582 3583 3584
          3585 3586 3587 3588 3589 3590 3591 3592 3593 3594 3595 3596
          3597 3598 3599 3600 3601 3602 3603 3604 3605 3606 3607 3608
          3609 3610 3611 3612 3613 3614 3615 3616 3617 3618 3619 3620
          3621 3622 3623 3624 3625 3626 3627 3628 3629 3630 3631 3632
          3633 3634 3635 3636 3637 3638 3639 3640 3641 3642 3643 3644
          3645 3646 3647 3648 3649 3650 3651 3652 3653 3654 3655 3656
          3657 3658 3659 3660 3661 3662 3663 3664 3665 3666 3667 3668
          3669 3670 3671 3672 3673 3674 3675 3676 3677 3678 3679 3680
          3681 3682 3683 3684 3685 3686 3687 3688 3689 3690 3691 3692
          3693 3694 3695 3696 3697 3698 3699 3700 3701 3702 3703 3704
          3705 3706 3707 3708 3709 3710 3711 3712 3713 3714 3715 3716
          3717 3718 3719 3720 3721 3722 3723 3724 3725 3726 3727 3728
          3729 3730 3731 3732 3733 3734 3735 3736 3737 3738 3739 3740
          3741 3742 3743 3744 3745 3746 3747 3748 3749 3750 3751 3752
          3753 3754 3755 3756 3757 3758 3759 3760 3761 3762 3763 3764
          3765 3766 3767 3768 3769 3770 3771 3772 3773 3774 3775 3776
          3777 3778 3779 3780 3781 3782 3783 3784 3785 3786 3787 3788
          3789 3790 3791 3792 3793 3794 3795 3796 3797 3798 3799 3800
          3801 3802 3803 3804 3805 3806 3807 3808 3809 3810 3811 3812
          3813 3814 3815 3816 3817 3818 3819 3820 3821 3822 3823 3824
          3825 3826 3827 3828 3829 3830 3831 3832 3833 3834 3835 3836
          3837 3838 3839 3840 3841 3842 3843 3844 3845 3846 3847 3848
          3849 3850 3851 3852 3853 3854 3855 3856 3857 3858 3859 3860
          3861 3862 3863 3864 3865 3866 3867 3868 3869 3870 3871 3872
          3873 3874 3875 3876 3877 3878 3879 3880 3881 3882 3883 3884
          3885 3886 3887 3888 3889 3890 3891 3892 3893 3894 3895 3896
          3897 3898 3899 3900 3901 3902 3903 3904 3905 3906 3907 3908
          3909 3910 3911 3912 3913 3914 3915 3916 3917 3918 3919 3920
          3921 3922 3923 3924 3925 3926 3927 3928 3929 3930 3931 3932
          3933 3934 3935 3936 3937 3938 3939 3940 3941 3942 3943 3944
          3945 3946 3947 3948 3949 3950 3951 3952 3953 3954 3955 3956
          3957 3958 3959 3960 3961 3962 3963 3964 3965 3966 3967 3968
          3969 3970 3971 3972 3973 3974 3975 3976 3977 3978 3979 3980
          3981 3982 3983 3984 3985 3986 3987 3988 3989 3990 3991 3992
          3993 3994 3995 3996 3997 3998 3999 4000 4001 4002 4003 4004
          4005 4006 4007 4008 4009 4010 4011 4012 4013 4014 4015 4016
          4017 4018 4019 4020 4021 4022 4023 4024 4025 4026 4027 4028
          4029 4030 4031 4032 4033 4034 4035 4036 4037 4038 4039 4040
          4041 4042 4043 4044 4045 4046 4047 4048 4049 4050 4051 4052
          4053 4054 4055 4056 4057 4058 4059 4060 4061 4062 4063 4064
          4065 4066 4067 4068 4069 4070 4071 4072 4073 4074 4075 4076
          4077 4078 4079 4080 4081 4082 4083 4084 4085 4086 4087 4088
          4089 4090 4091 4092 4093 4094 4095 4096 4097 4098 4099 4100
          4101 4102 4103 4104 4105 4106 4107 4108 4109 4110 4111 4112
          4113 4114 4115 4116 4117 4118 4119 4120 4121 4122 4123 4124
          4125 4126 4127 4128 4129 4130 4131 4132 4133 4134 4135 4136
          4137 4138 4139 4140 4141 4142 4143 4144 4145 4146 4147 4148
          4149 4150 4151 4152 4153 4154 4155 4156 4157 4158 4159 4160
          4161 4162 4163 4164 4165 4166 4167 4168 4169 4170 4171 4172
          4173 4174 4175 4176 4177 4178 4179 4180 4181 4182 4183 4184
          4185 4186 4187 4188 4189 4190 4191 4192 4193 4194 4195 4196
          4197 4198 4199 4200 4201 4202 4203 4204 4205 4206 4207 4208
          4209 4210 4211 4212 4213 4214 4215 4216 4217 4218 4219 4220
          4221 4222 4223 4224 4225 4226 4227 4228 4229 4230 4231 4232
          4233 4234 4235 4236 4237 4238 4239 4240 4241 4242 4243 4244
          4245 4246 4247 4248 4249 4250 4251 4252 4253 4254 4255 4256
          4257 4258 4259 4260 4261 4262 4263 4264 4265 4266 4267 4268
          4269 4270 4271 4272 4273 4274 4275 4276 4277 4278 4279 4280
          4281 4282 4283 4284 4285 4286 4287 4288 4289 4290 4291 4292
          4293 4294 4295 4296 4297 4298 4299 4300 4301 4302 4303 4304
          4305 4306 4307 4308 4309 4310 4311 4312 4313 4314 4315 4316
          4317 4318 4319 4320 4321 4322 4323 4324 4325 4326 4327 4328
          4329 4330 4331 4332 4333 4334 4335 4336 4337 4338 4339 4340
          4341 4342 4343 4344 4345 4346 4347 4348 4349 4350 4351 4352
          4353 4354 4355 4356 4357 4358 4359 4360 4361 4362 4363 4364
          4365 4366 4367 4368 4369 4370 4371 4372 4373 4374 4375 4376
          4377 4378 4379 4380 4381 4382 4383 4384 4385 4386 4387 4388
          4389 4390 4391 4392 4393 4394 4395 4396 4397 4398 4399 4400
          4401 4402 4403 4404 4405 4406 4407 4408 4409 4410 4411 4412
          4413 4414 4415 4416 4417 4418 4419 4420 4421 4422 4423 4424
          4425 4426 4427 4428 4429 4430 4431 4432 4433 4434 4435 4436
          4437 4438 4439 4440 4441 4442 4443 4444 4445 4446 4447 4448
          4449 4450 4451 4452 4453 4454 4455 4456 4457 4458 4459 4460
          4461 4462 4463 4464 4465 4466 4467 4468 4469 4470 4471 4472
          4473 4474 4475 4476 4477 4478 4479 4480 4481 4482 4483 4484
          4485 4486 4487 4488 4489 4490 4491 4492 4493 4494 4495 4496
          4497 4498 4499 4500 4501 4502 4503 4504 4505 4506 4507 4508
          4509 4510 4511 4512 4513 4514 4515 4516 4517 4518 4519 4520
          4521 4522 4523 4524 4525 4526 4527 4528 4529 4530 4531 4532
          4533 4534 4535 4536 4537 4538 4539 4540 4541 4542 4543 4544
          4545 4546 4547 4548 4549 4550 4551 4552 4553 4554 4555 4556
          4557 4558 4559 4560 4561 4562 4563 4564 4565 4566 4567 4568
          4569 4570 4571 4572 4573 4574 4575 4576 4577 4578 4579 4580
          4581 4582 4583 4584 4585 4586 4587 4588 4589 4590 4591 4592
          4593 4594 4595 4596 4597 4598 4599 4600 4601 4602 4603 4604
          4605 4606 4607 4608 4609 4610 4611 4612 4613 4614 4615 4616
          4617 4618 4619 4620 4621 4622 4623 4624 4625 4626 4627 4628
          4629 4630 4631 4632 4633 4634 4635 4636 4637 4638 4639 4640
          4641 4642 4643 4644 4645 4646 4647 4648 4649 4650 4651 4652
[...]
        141     -5.4089851E-05
        142     -2.2536762E-05
        143     -1.1832971E-04
        144     -1.2802391E-04
        145     -4.7632641E-04
        146     -2.1438218E-04
        147     -3.9585803E-04
        148     -5.9335644E-04
        149     -6.5448858E-04
        150     -5.9700934E-04
        151     -1.2716118E-03
        152     -6.0070953E-04
        153     -1.3037584E-03
        154     -5.9539486E-04
        155     -1.1408171E-03
        156     -5.0209161E-04
        157     -4.0417967E-04
        158     -2.8357605E-04
        159     -3.5747244E-04
        160     -1.3415229E-04
        161     -1.9474833E-04
        162     -1.3083513E-07
        163     -7.7420243E-05
        164     -7.8243237E-05
        165     -8.8050370E-05
        166     -9.2236898E-05
        167     -3.1790130E-04
        168     -2.2837163E-04
        169     -6.8642429E-04
        170     -3.9114195E-04
        171     -6.1672950E-04
        172     -9.1706924E-04
        173     -6.2878532E-04
        174     -7.4735661E-04
        175     -2.2477742E-04
        176     -5.3103652E-04
        177     -3.6065247E-04
        178     -2.6787565E-04
        179     -3.8176892E-04
        180      3.6702778E-04
        190     -3.2733315E-04
        191     -2.1053046E-04
        192     -3.0367739E-05
        193     -3.6856449E-04
        194     -5.0171609E-04
        195     -6.1442920E-04
        196     -2.0062310E-04
        289     -9.9559262E-04
        290     -2.4565368E-04
        291     -3.0824455E-04
        292     -2.9579637E-04
        293     -9.6505437E-05
        294     -5.8372393E-05
        295     -2.1853882E-05
        296     -8.4549023E-05
        297     -1.6443849E-04
        298     -1.5659679E-04
        299     -4.1440508E-06
        300     -3.4854863E-04
        301     -6.7386347E-04
        302     -4.0253673E-04
        303     -8.2254984E-04
        304     -8.7938102E-04
        305     -7.4403417E-04
        306     -8.4531516E-04
        307     -1.0904232E-03
        308     -8.6204372E-04
        309     -8.2548489E-04
        310     -8.0966018E-04
        311     -8.9734236E-04
        312     -4.3972410E-04
        313     -2.0426044E-04
        314     -3.0106842E-04
        315     -1.9243953E-04
        316     -5.2800176E-05
        317      3.5441650E-06
        318     -2.1509492E-04
        319     -7.4887386E-05
        320     -1.9296127E-04
        321     -2.0226284E-04
        322     -1.7259702E-04
        323     -5.0164515E-04
        324     -7.6009151E-04
        325     -4.3329753E-04
        326     -7.6456042E-04
        327     -1.1591617E-03
        328     -8.2551071E-04
        329     -1.1075517E-03
        330     -6.6306767E-04
        331     -9.3672174E-04
        332     -8.4621782E-04
        333     -6.0932658E-04
        334     -5.1465103E-04
        335     -5.0415610E-05
        336     -3.4595080E-04
        337     -6.1705544E-05
        338     -1.2055391E-04
        339     -3.1560451E-05
        340     -2.3489542E-04
        341     -1.5824696E-05
        342     -2.1160823E-04
        343     -3.1423710E-04
        344     -4.0674887E-04
        345     -6.2230588E-04
        346     -4.1838719E-04
        347     -8.2280169E-04
        348     -8.5441764E-04
        349     -8.8409712E-04
        350     -5.8158651E-04
        351     -1.1855732E-03
        352     -6.4497491E-04
        353     -9.6345145E-04
        354     -8.6209586E-04
        355     -5.9623915E-04
        356     -3.2046793E-04
        357     -2.4128398E-04
        358     -1.6563236E-04
        359     -1.8531892E-04
        360     -1.0295394E-04
        361     -3.4185454E-05
        362     -8.9542684E-05
        363     -1.3324891E-04
        364     -9.1349081E-05
        365     -4.0367876E-04
        366     -3.3782459E-04
        367     -6.1458146E-04
        368     -4.0363651E-04
        369     -6.2676389E-04
        370     -8.4346366E-04
        371     -5.9203000E-04
        372     -6.4548259E-04
        373     -6.6668637E-04
        374     -1.5198541E-04
        375     -4.6769869E-04
        376     -3.6359016E-04
        377     -2.5422921E-04
        378      2.6342284E-04
        388     -3.0996852E-04
        389     -1.4709474E-04
        390     -5.5380597E-04
        391     -3.0300644E-04
        392     -2.7567786E-04
        393     -3.6205901E-04
        394     -8.9830837E-05
        859     -4.3604592E-04
        860     -7.8492923E-04
        861     -7.9225924E-04
        862     -6.8927233E-04
        863     -6.7967608E-04
        864     -1.5167818E-03
        865     -1.4018076E-03
        866     -1.2168788E-03
        867     -1.4949615E-03
        868     -1.5184706E-03
        869     -8.3429356E-04
        870     -3.5052512E-04
        871     -9.8598808E-04
        872     -7.1646272E-04
        873     -8.5606368E-04
        874     -1.3453038E-04
        875     -5.1208277E-04
        876     -7.8151670E-05
        877     -4.1764394E-04
        878     -1.9487040E-04
        879     -3.3941695E-04
        880     -3.2120846E-04
        881     -3.4559304E-04
        882     -3.6379403E-04
        883     -9.8248333E-05
        884     -8.1490133E-05
        885     -8.6573132E-05
        886     -2.2991130E-04
        887     -1.5897709E-04
        888     -2.3884608E-04
        889     -2.0563439E-04
        890     -1.0345547E-04
        891     -8.3041863E-05
        892     -7.0450683E-05
        893     -4.5595165E-05
        894     -7.6579240E-05
        895     -1.1705198E-04
        896     -3.4841836E-05
        897     -1.2601294E-04
        898     -1.8149145E-04
        899     -2.2764717E-04
        900     -2.4117134E-04
        901     -5.8603873E-05
        902     -2.8169076E-04
        903     -1.3669207E-04
        904     -1.7519292E-04
        905     -2.6642932E-04
        906     -4.1946520E-04
        907     -2.2394706E-04
        908     -2.4592638E-04
        909     -3.9358039E-04
        910     -2.8135070E-04
        911     -3.9775987E-04
        912     -5.7977362E-04
        913     -4.8648199E-04
        914     -7.7136787E-04
        915     -7.0364153E-04
        916     -4.6509010E-04
        917     -3.7042870E-04
        918     -5.1435913E-04
        919     -1.1500743E-03
        920     -1.2522991E-03
        921     -1.5398682E-03
        922     -1.2315867E-03
        923     -1.1757253E-03
        924     -1.1181022E-03
        925     -8.1404539E-04
        926     -6.6543428E-04
        927     -1.0760892E-03
        928     -1.0528254E-03
        929     -1.3385718E-03
        930     -1.3229763E-03
        931     -1.1226773E-03
        932     -1.4045223E-03
        933     -1.3400673E-03
        934     -1.7355344E-03
        935     -1.4722678E-03
        936     -1.4098545E-03
        937     -1.5629987E-03
        938     -1.5213362E-03
        939     -1.7763361E-03
        940     -1.8543724E-03
        941     -1.9373739E-03
        942     -1.6310379E-03
        943     -1.7973346E-03
        944     -2.0397493E-03
        945     -1.9202764E-03
        946     -2.2198871E-03
        947     -2.0633650E-03
        948     -1.9991619E-03
        949     -2.2256692E-03
        950     -1.6653170E-03
        951     -1.1921088E-03
        952     -1.7087365E-03
        953     -1.9404338E-03
        954     -2.4097155E-03
        955     -1.9442509E-03
        956     -2.0073009E-03
        957     -1.7755330E-03
        958     -1.7528817E-03
        959     -5.8665486E-04
        960     -1.7245837E-03
        961     -2.3438334E-03
        962     -1.8682992E-03
        963     -1.1884793E-03
        964     -1.7060038E-03
        965     -1.1592728E-03
        966     -4.4513784E-04
        967     -1.1640512E-03
        968     -1.5085661E-03
        969     -5.6446867E-04
        970     -1.3575636E-03
        971     -1.7125550E-03
        972     -8.8989837E-04
        973     -1.2672388E-03
        974     -6.5092553E-04
        975     -7.0274554E-04
        976     -7.2376171E-04
        977     -3.6848026E-04
        978     -3.9759294E-04
        979     -8.6240887E-04
        980     -8.5628736E-04
        981     -8.4403298E-04
        982     -5.1626203E-04
        983     -4.9480456E-04
        984     -3.9816958E-04
        985     -1.2199347E-04
        986     -1.4654131E-04
        987     -4.1298062E-04
        988     -4.5839185E-04
        989     -2.5202634E-04
        990     -4.0136505E-04
        991     -3.9027205E-04
        992     -2.8354206E-04
        993     -1.8536160E-04
        994     -2.1044993E-04
        995     -1.7100056E-04
        996     -9.0708852E-05
        997     -1.5524215E-04
        998     -1.9629360E-04
        999     -8.2763015E-05
       1000     -1.0560563E-04
       1001     -2.6816335E-04
       1002     -1.5069038E-04
       1003     -1.5082794E-04
       1004     -1.9509444E-04
       1005     -1.9175570E-04
       1006     -1.6281085E-04
       1007     -2.1379590E-04
       1008     -1.8502327E-04
       1009     -3.4561981E-04
       1010     -2.7999031E-04
       1011     -1.4549140E-04
       1012     -2.5792578E-04
       1013     -4.1853519E-04
       1014     -2.7723298E-04
       1015     -4.3981646E-04
       1016     -5.2726684E-04
       1017     -3.1787672E-04
       1018     -3.4817110E-04
       1019     -4.7998828E-04
       1020     -1.9399320E-04
       1021     -4.0833613E-04
       1022     -5.8467126E-04
       1023     -1.1456377E-04
       1024     -7.3829369E-04
       1025     -1.0785946E-03
       1026     -7.5675262E-04
       1027     -7.1965561E-04
       1028     -7.6499462E-04
       1029     -1.2573525E-03
       1030     -9.4112268E-04
       1031     -9.2630057E-04
       1032     -1.1643427E-03
       1033     -1.0875630E-03
       1034     -1.3384791E-03
       1035     -1.3112043E-03
       1036     -1.3888070E-03
       1037     -1.2490917E-03
       1038     -9.8691656E-04
       1039     -1.3116867E-03
       1040     -1.3339780E-03
       1041     -1.5388278E-03
       1042     -1.3394045E-03
       1043     -1.2948145E-03
       1044     -1.5583837E-03
       1045     -1.5373166E-03
       1046     -1.4896106E-03
       1047     -1.5064310E-03
       1048     -1.5395299E-03
       1049     -1.7640819E-03
       1050     -1.8470929E-03
       1051     -1.4594479E-03
       1052     -1.8516326E-03
       1053     -1.9243894E-03
       1054     -1.8649697E-03
       1055     -1.7017752E-03
       1056     -2.1276592E-03
       1057     -1.9725839E-03
       1058     -1.9378337E-03
       1059     -2.0358333E-03
       1060     -2.1052135E-03
       1061     -1.6860490E-03
       1062     -1.6769056E-03
       1063     -1.7047038E-03
       1064     -1.7589017E-03
       1065     -2.0780180E-03
       1066     -2.0743178E-03
       1067     -1.7270777E-03
       1068     -1.8830363E-03
       1069     -1.3682218E-03
       1070     -1.0365642E-03
       1071     -1.4891955E-03
       1072     -1.2058235E-03
       1073     -1.7388042E-03
       1074     -1.3485141E-03
       1075     -1.7466787E-03
       1076     -1.1151278E-03
       1077     -1.6005294E-03
       1078     -1.6820441E-03
       1079     -1.2560635E-03
       1080     -8.6396406E-04
       1081     -1.1624612E-03
       1082     -1.3062543E-03
       1083     -2.9048669E-04
       1084     -9.4122591E-04
       1085     -8.8031633E-04
       1086     -5.5378433E-04
       1087     -6.5453541E-04
       1088     -8.4575393E-04
       1089     -4.0599398E-04
       1090     -6.7777476E-04
       1091     -5.7125299E-04
       1092     -6.9199742E-05
       1093      5.5217444E-05
       1094     -4.8623704E-04
       1095     -3.3905616E-04
       1096     -1.9599102E-04
       1097     -4.2290397E-04
       1098     -4.8678331E-04
       1099     -2.3951686E-04
       1100     -2.7547557E-04
       1101     -4.4637563E-04
       1102     -3.0478611E-04
       1103     -3.6175434E-04
       1104     -1.4030594E-04
       1105     -1.9156036E-04
       1106     -2.1597193E-04
       1107     -1.4200612E-04
       1108     -2.3425151E-04
       1109     -2.4503899E-04
       1110     -1.8147113E-04
       1111     -2.0123106E-04
       1112     -2.3007048E-04
       1113     -1.7991651E-04
       1114     -6.5136091E-05
       1115     -8.7652440E-05
       1116     -2.0271874E-04
       1117     -1.8276396E-04
       1118     -2.1564162E-04
       1119     -3.1820060E-04
       1120     -3.3042034E-04
       1121     -2.1006280E-04
       1122     -2.4237327E-04
       1123     -1.6825001E-04
       1124     -3.5437187E-04
       1125     -3.9122854E-04
       1126     -4.9506061E-04
       1127     -4.4820889E-04
       1128     -4.6418623E-04
       1129     -4.6537910E-04
       1130     -3.7723267E-04
       1131     -2.2194390E-04
       1132     -4.3658709E-04
       1133     -4.0428050E-04
       1134     -5.1253998E-04
       1135     -8.0551633E-04
       1136     -6.3863448E-04
       1137     -4.2509324E-04
       1138     -7.0933518E-04
       1139     -1.0459319E-03
       1140     -1.0309816E-03
       1141     -1.4582065E-03
       1142     -1.0569435E-03
       1143     -1.4162669E-03
       1144     -4.1750524E-04
       1145     -9.8779157E-04
       1146     -7.7797379E-04
       1147     -9.8438064E-04
       1148     -1.0526295E-03
       1149     -1.5082995E-03
       1150     -1.4832149E-03
       1151     -1.2096129E-03
       1152     -1.4116083E-03
       1153     -1.6438497E-03
       1154     -1.7364113E-03
       1155     -1.5383655E-03
       1156     -1.5102909E-03
       1157     -1.5426629E-03
       1158     -1.5197140E-03
       1159     -1.6728488E-03
       1160     -1.7447859E-03
       1161     -1.9606648E-03
       1162     -1.6122402E-03
       1163     -1.8398687E-03
       1164     -2.0453096E-03
       1165     -1.9559535E-03
       1166     -2.1254377E-03
       1167     -2.0683907E-03
       1168     -1.8949373E-03
       1169     -1.8850010E-03
       1170     -1.7033418E-03
       1171     -1.1453341E-03
       1172     -1.6102155E-03
       1173     -1.8539289E-03
       1174     -1.7345120E-03
       1175     -1.6032688E-03
       1176     -2.2341243E-03
       1177     -1.7403282E-03
       1178     -1.5189784E-03
       1179     -1.8348734E-03
       1180     -1.6639819E-03
       1181     -1.3063936E-03
       1182     -1.8043973E-03
       1183     -1.6383348E-03
       1184     -8.4430619E-04
       1185     -1.3778641E-03
       1186     -1.4876054E-03
       1187     -1.0973056E-03
       1188     -1.6150022E-03
       1189     -1.0024774E-03
       1190     -1.1275745E-03
       1191     -9.8036258E-04
       1192     -1.1312037E-03
       1193     -6.8071246E-04
       1194     -5.0338769E-04
       1195     -6.8427355E-04
       1196     -6.8557066E-04
       1197     -5.7166021E-04
       1198     -5.1443946E-04
       1199     -5.1196097E-04
       1200     -3.9069179E-04
       1201     -7.9298113E-06
       1202     -5.5554332E-04
       1203     -4.5730470E-04
       1204     -2.8165753E-04
       1205     -4.3203826E-04
       1206     -4.7279844E-04
       1207     -3.9116472E-04
       1208     -4.1068960E-04
       1209     -3.5270130E-04
       1210     -2.2876306E-04
       1211     -1.8514773E-04
       1212     -2.6979098E-04
       1213     -2.1565385E-04
       1214      4.3209134E-05
       1215     -3.4786933E-05
       1216     -1.8820682E-04
       1217     -1.3883928E-04
       1218     -1.3656644E-04
       1219     -1.2885837E-04
       1220     -2.7364395E-04
       1221     -2.1860983E-04
       1222     -2.4428702E-04
       1223     -1.4610610E-04
       1224     -1.8486631E-04
       1225     -4.1746711E-05
       1226     -1.2514571E-05
       1227     -1.2329773E-04
       1228     -1.7997987E-04
       1229     -2.3424021E-04
       1230     -3.2568122E-04
       1231     -3.8737703E-04
       1232     -3.0075176E-04
       1233     -2.7324962E-04
       1234     -3.9046493E-04
       1235     -4.0358978E-04
       1236     -2.9507313E-04
       1237     -4.0238381E-04
       1238     -3.7856127E-04
       1239     -4.4796456E-04
       1240     -3.5119609E-04
       1241     -4.1469474E-04
       1242     -3.7025835E-04
       1243     -4.1013402E-04
       1244     -4.0946071E-04
       1245     -6.7190975E-04
       1246     -7.9307089E-04
       1247     -6.6816129E-04
       1248     -6.3107348E-04
       1249     -1.0444076E-03
       1250     -1.0823933E-03
       1251     -1.5773008E-03
       1252     -1.2476177E-03
       1253     -1.1793837E-03
       1254     -8.7103781E-04
       1255     -6.1970977E-04
       1256     -6.6669760E-04
       1257     -9.1574381E-04
       1258     -1.0469056E-03
       1259     -1.1339105E-03
       1260     -1.2583263E-03
       1261     -8.5257698E-04
       1262     -1.0105639E-03
       1263     -1.0536780E-03
       1264     -1.4723504E-03
       1265     -1.4987542E-03
       1266     -1.1506365E-03
       1267     -1.5769173E-03
       1268     -1.6205017E-03
       1269     -1.3170268E-03
       1270     -1.2893792E-03
       1271     -1.6569042E-03
       1272     -1.5530944E-03
       1273     -1.3165934E-03
       1274     -1.3658232E-03
       1275     -1.3813052E-03
       1276     -1.1800837E-03
       1277     -1.4231554E-03
       1278     -1.3884108E-03
       1279     -1.3555188E-03
       1280     -1.3237305E-03
       1281     -1.5134351E-03
       1282     -1.4716569E-03
       1283     -1.1345346E-03
       1284     -1.1065982E-03
       1285     -1.0291518E-03
       1286     -1.1057580E-03
       1287     -1.0116579E-03
       1288     -1.6890565E-03
       1289     -3.7099379E-04
       1290     -3.4076834E-04
       1291     -5.4761949E-04
       1292     -1.1877481E-03
       1293     -2.2218740E-04
       1294     -7.4524861E-04
       1295     -7.7515016E-04
       1296     -5.5893535E-04
       1297      3.8490536E-04
       1298     -4.5522487E-04
       1299     -7.2597851E-04
       1300     -7.9776283E-04
       1301     -9.7436799E-04
       1302     -8.9738341E-04
       1303     -7.7242040E-04
       1304      4.7484499E-04
       1305      5.4205419E-04
       1306      6.1227111E-04
       1307      5.8344230E-04
       1308      5.1949847E-04
       1354     -3.8379892E-04
       1355     -8.5356615E-04
       1356     -1.0443987E-03
       1357     -5.2309891E-04
       1358     -4.1692476E-04
       1359     -6.7180459E-04
       1360     -9.4755444E-04
       1361     -4.2118127E-04
       1362     -8.5513103E-04
       1363     -9.8477211E-04
       1364     -9.6834633E-04
       1365     -8.2578859E-04
       1366     -7.6784924E-04
       1367     -4.7812013E-04
       1368     -5.6325495E-04
       1369     -1.1279550E-03
       1370     -9.3101927E-04
       1371     -1.0505624E-03
       1372     -7.9634507E-04
       1373     -4.1895590E-04
       1374     -7.8851562E-04
       1375     -1.1133126E-03
       1376     -1.0864467E-03
       1377     -8.9707711E-04
       1378     -7.9734459E-04
       1379     -1.1858121E-03
       1380     -1.0316459E-03
       1381     -1.2056306E-03
       1382     -8.9953597E-04
       1383     -1.1081281E-03
       1384     -8.6160664E-04
       1385     -8.8111104E-04
       1386     -8.9107209E-04
       1387     -8.3253354E-04
       1388     -9.1778357E-04

 MAXIMUM         6.1227E-04
 AT NODE              1306

 MINIMUM        -2.4097E-03
 AT NODE               954


          THE ANALYSIS HAS BEEN COMPLETED



                              ANALYSIS COMPLETE
                              WITH      2 WARNING MESSAGES ON THE DAT FILE



     JOB TIME SUMMARY
       USER TIME (SEC)      =   5.6000    
       SYSTEM TIME (SEC)    =   1.4000    
       TOTAL CPU TIME (SEC) =   7.0000    
       WALLCLOCK TIME (SEC) =          4
