*Heading
** Job name: sq-8mm_sin-per-4_sin-amp-1mm_tet_test Model name: Model-1
** Generated by: Abaqus/CAE 2021
*Preprint, echo=NO, model=NO, history=NO, contact=NO
**
** PARTS
**
*Part, name=Part-1
*End Part
**
**
** ASSEMBLY
**
*Assembly, name=Assembly
**
*Instance, name=Part-1-1, part=Part-1
*Node
1, -20, 4, 0
2, -19.5833, 3.7412, 0
3, -19.1667, 3.5, 0
4, -18.75, 3.2929, 0
5, -18.3333, 3.134, 0
6, -17.9167, 3.0341, 0
7, -17.5, 3, 0
8, -17.0833, 3.0341, 0
9, -16.6667, 3.134, 0
10, -16.25, 3.2929, 0
11, -15.8333, 3.5, 0
12, -15.4167, 3.7412, 0
13, -14.5833, 4.2588, 0
14, -14.1667, 4.5, 0
15, -13.75, 4.7071, 0
16, -13.3333, 4.866, 0
17, -12.9167, 4.9659, 0
18, -12.5, 5, 0
19, -12.0833, 4.9659, 0
20, -11.6667, 4.866, 0
** ... 2584 like lines cut
*Element, type=C3D4H
1, 2563, 1899, 1900, 1880
2, 2563, 2370, 1899, 1880
3, 2566, 2385, 2378, 2377
4, 2234, 1411, 1410, 1444
5, 2563, 2370, 1880, 2369
6, 1801, 2451, 2450, 2575
7, 1800, 1755, 2581, 1797
8, 1795, 1756, 2432, 1754
9, 1795, 1761, 1756, 1754
10, 1805, 2596, 2506, 2590
11, 2590, 1769, 2480, 2481
12, 2590, 2481, 2506, 1769
13, 2590, 2485, 2480, 1769
14, 1901, 1610, 459, 454
15, 2590, 1769, 1776, 2485
16, 1742, 921, 931, 932
17, 1922, 1921, 1620, 1642
18, 1773, 1776, 2511, 2510
19, 1805, 1778, 2596, 2594
20, 2583, 2433, 2461, 1761
** ... 9974 like lines cut
*Nset, nset=Set-1, generate
1, 2604, 1
*Elset, elset=Set-1, generate
1, 9994, 1
** Section: Section-1
*Solid Section, elset=Set-1, controls=EC-1, material=Material-1
,
*End Instance
**
*Nset, nset=bc-set-1, instance=Part-1-1
1, 2, 3, 4, 5, 6, 7, 8, 9, 10, 11, 12, 13, 14, 15, 16
17, 18, 19, 20, 21, 22, 23, 24, 25, 26, 27, 28, 29, 30, 31, 32
33, 34, 35, 36, 37, 38, 39, 40, 41, 42, 43, 44, 45, 46, 47, 48
49, 50, 51, 52, 53, 54, 55, 56, 57, 58, 59, 60, 61, 62, 63, 64
65, 66, 67, 68, 69, 70, 71, 72, 73, 74, 75, 76, 77, 78, 79, 80
81, 82, 83, 84, 85, 86, 87, 88, 89, 90, 181, 182, 183, 184, 185, 186
187, 199, 200, 201, 202, 203, 204, 205, 206, 207, 208, 209, 210, 211, 212, 213
214, 215, 216, 217, 218, 219, 220, 221, 222, 223, 224, 225, 226, 227, 228, 229
230, 231, 232, 233, 234, 235, 236, 237, 238, 239, 240, 241, 242, 243, 244, 245
246, 247, 248, 249, 250, 251, 252, 253, 254, 255, 256, 257, 258, 259, 260, 261
262, 263, 264, 265, 266, 267, 268, 269, 270, 271, 272, 273, 274, 275, 276, 277
278, 279, 280, 281, 282, 283, 284, 285, 286, 287, 288, 379, 380, 381, 382, 383
384, 385, 409, 410, 411, 412, 413, 414, 415, 416, 417, 418, 419, 420, 421, 422
423, 424, 425, 426, 427, 428, 429, 430, 431, 432, 433, 434, 435, 436, 437, 438
439, 440, 441, 442, 443, 444, 445, 446, 447, 448, 449, 450, 451, 452, 453, 454
455, 456, 457, 458, 459, 460, 461, 462, 463, 464, 465, 466, 467, 468, 469, 470
471, 472, 473, 474, 475, 476, 477, 478, 479, 480, 481, 482, 483, 484, 485, 486
487, 488, 489, 490, 491, 492, 493, 494, 495, 496, 497, 498, 499, 500, 501, 502
503, 504, 505, 506, 507, 508, 509, 510, 511, 512, 513, 514, 515, 516, 517, 518
519, 520, 521, 522, 523, 524, 525, 526, 527, 528, 529, 530, 531, 532, 533, 534
** ... 23 like lines cut
*Elset, elset=bc-set-1, instance=Part-1-1
14, 23, 84, 89, 90, 107, 109, 111, 121, 133, 140, 155, 156, 175, 182, 188
205, 211, 212, 221, 225, 227, 240, 242, 244, 251, 255, 258, 262, 265, 272, 273
274, 275, 277, 280, 281, 283, 285, 286, 294, 298, 299, 300, 302, 305, 306, 308
311, 312, 314, 315, 316, 325, 334, 336, 341, 348, 351, 362, 366, 370, 375, 383
387, 390, 392, 396, 402, 403, 404, 407, 410, 411, 414, 415, 416, 417, 418, 420
426, 435, 451, 452, 453, 455, 457, 459, 463, 465, 467, 474, 476, 481, 490, 491
492, 496, 497, 499, 501, 502, 503, 507, 513, 518, 520, 521, 523, 524, 525, 527
529, 532, 533, 534, 535, 537, 539, 540, 541, 545, 555, 556, 566, 568, 579, 582
584, 586, 589, 593, 603, 607, 608, 610, 612, 615, 618, 619, 620, 621, 623, 626
629, 630, 632, 638, 639, 640, 647, 655, 656, 658, 659, 664, 666, 667, 668, 672
679, 682, 684, 686, 690, 691, 693, 695, 697, 704, 705, 707, 709, 710, 711, 712
714, 715, 717, 718, 719, 720, 722, 723, 725, 728, 729, 733, 740, 741, 742, 744
749, 754, 757, 758, 765, 766, 767, 768, 779, 785, 787, 793, 795, 798, 801, 810
815, 817, 819, 822, 823, 825, 828, 829, 830, 835, 837, 838, 839, 841, 842, 843
844, 845, 846, 848, 850, 851, 853, 855, 856, 860, 861, 864, 868, 869, 871, 875
877, 883, 887, 892, 899, 900, 909, 910, 915, 917, 921, 926, 927, 928, 935, 939
942, 944, 947, 950, 952, 953, 958, 959, 960, 962, 963, 965, 969, 972, 975, 979
980, 981, 982, 984, 986, 989, 992, 993, 998, 1001, 1006, 1013, 1015, 1017, 1025, 1030
1031, 1032, 1033, 1043, 1044, 1048, 1050, 1054, 1055, 1057, 1059, 1067, 1071, 1073, 1075, 1078
1079, 1081, 1082, 1087, 1089, 1090, 1092, 1094, 1097, 1100, 1102, 1103, 1110, 1112, 1113, 1118
** ... 134 like lines cut
*Nset, nset=bc-set-2, instance=Part-1-1
91, 92, 93, 94, 95, 96, 97, 98, 99, 100, 101, 102, 103, 104, 105, 106
107, 108, 109, 110, 111, 112, 113, 114, 115, 116, 117, 118, 119, 120, 121, 122
123, 124, 125, 126, 127, 128, 129, 130, 131, 132, 133, 134, 135, 136, 137, 138
139, 140, 141, 142, 143, 144, 145, 146, 147, 148, 149, 150, 151, 152, 153, 154
155, 156, 157, 158, 159, 160, 161, 162, 163, 164, 165, 166, 167, 168, 169, 170
171, 172, 173, 174, 175, 176, 177, 178, 179, 180, 190, 191, 192, 193, 194, 195
196, 289, 290, 291, 292, 293, 294, 295, 296, 297, 298, 299, 300, 301, 302, 303
304, 305, 306, 307, 308, 309, 310, 311, 312, 313, 314, 315, 316, 317, 318, 319
320, 321, 322, 323, 324, 325, 326, 327, 328, 329, 330, 331, 332, 333, 334, 335
336, 337, 338, 339, 340, 341, 342, 343, 344, 345, 346, 347, 348, 349, 350, 351
352, 353, 354, 355, 356, 357, 358, 359, 360, 361, 362, 363, 364, 365, 366, 367
368, 369, 370, 371, 372, 373, 374, 375, 376, 377, 378, 388, 389, 390, 391, 392
393, 394, 859, 860, 861, 862, 863, 864, 865, 866, 867, 868, 869, 870, 871, 872
873, 874, 875, 876, 877, 878, 879, 880, 881, 882, 883, 884, 885, 886, 887, 888
889, 890, 891, 892, 893, 894, 895, 896, 897, 898, 899, 900, 901, 902, 903, 904
905, 906, 907, 908, 909, 910, 911, 912, 913, 914, 915, 916, 917, 918, 919, 920
921, 922, 923, 924, 925, 926, 927, 928, 929, 930, 931, 932, 933, 934, 935, 936
937, 938, 939, 940, 941, 942, 943, 944, 945, 946, 947, 948, 949, 950, 951, 952
953, 954, 955, 956, 957, 958, 959, 960, 961, 962, 963, 964, 965, 966, 967, 968
969, 970, 971, 972, 973, 974, 975, 976, 977, 978, 979, 980, 981, 982, 983, 984
** ... 23 like lines cut
*Elset, elset=bc-set-2, instance=Part-1-1
16, 27, 80, 134, 141, 162, 177, 191, 215, 224, 226, 230, 233, 234, 236, 241
245, 246, 247, 249, 250, 252, 253, 254, 256, 260, 263, 264, 267, 268, 276, 282
287, 288, 289, 291, 303, 304, 309, 310, 317, 318, 320, 321, 322, 323, 326, 332
335, 337, 338, 339, 342, 344, 347, 349, 352, 353, 354, 355, 357, 358, 363, 364
368, 369, 372, 373, 377, 378, 379, 382, 388, 393, 398, 405, 412, 419, 423, 427
428, 429, 430, 431, 432, 433, 434, 436, 437, 438, 439, 442, 443, 444, 445, 446
448, 449, 450, 454, 456, 458, 461, 464, 468, 470, 471, 472, 475, 477, 478, 479
480, 482, 483, 486, 487, 488, 489, 494, 498, 500, 504, 505, 506, 508, 509, 510
512, 514, 516, 517, 519, 538, 543, 544, 547, 548, 549, 550, 551, 554, 557, 558
559, 564, 565, 569, 571, 575, 576, 577, 580, 581, 583, 587, 588, 590, 592, 594
595, 596, 597, 598, 600, 601, 602, 604, 605, 606, 611, 617, 624, 625, 627, 628
642, 645, 650, 657, 661, 662, 663, 669, 671, 677, 678, 680, 681, 683, 687, 688
689, 692, 694, 696, 699, 701, 702, 703, 706, 708, 716, 724, 726, 727, 730, 731
735, 736, 738, 743, 746, 748, 750, 756, 759, 764, 771, 774, 775, 777, 780, 781
783, 784, 786, 797, 800, 802, 803, 805, 811, 812, 813, 814, 818, 831, 857, 862
867, 870, 872, 873, 874, 879, 880, 889, 890, 891, 895, 896, 898, 901, 902, 903
904, 905, 906, 907, 908, 914, 924, 930, 931, 932, 934, 936, 937, 938, 940, 941
943, 946, 948, 949, 951, 954, 964, 966, 968, 970, 976, 977, 985, 990, 991, 994
1003, 1005, 1007, 1011, 1014, 1016, 1018, 1020, 1023, 1024, 1026, 1027, 1034, 1035, 1038, 1039
1040, 1045, 1046, 1062, 1063, 1065, 1066, 1069, 1070, 1072, 1076, 1077, 1080, 1083, 1084, 1085
** ... 135 like lines cut
*End Assembly
**
** ELEMENT CONTROLS
**
*Section Controls, name=EC-1, hourglass=ENHANCED
1., 1., 1.
**
** MATERIALS
**
*Material, name=Material-1
*Hyperelastic, neo hooke
0.002, 300
** ----------------------------------------------------------------
**
** STEP: Step-1
**
*Step, name=Step-1, nlgeom=YES
*Static
1., 1., 1e-05, 1.
**
** BOUNDARY CONDITIONS
**
** Name: BC-1 Type: Displacement/Rotation
*Boundary
bc-set-1, 1, 1, 3
bc-set-1, 2, 6
** Name: BC-2 Type: Symmetry/Antisymmetry/Encastre
*Boundary
bc-set-2, ENCASTRE
**
** OUTPUT REQUESTS
**
*Restart, write, frequency=0
**
** FIELD OUTPUT: F-Output-1
**
*Output, field, variable=PRESELECT
**
** HISTORY OUTPUT: H-Output-1
**
*Output, history, variable=PRESELECT
*NODE PRINT
U
*EL PRINT, position = centroidal
DG
*NODE PRINT, nset = bc-set-1
RF1
*NODE PRINT, nset = bc-set-2
RF1
*End Step