1

   Abaqus 2021                                  Date 19-Jul-2023   Time 21:18:43
   For use by UNIVERSITY OF MICHIGAN under license from Dassault Systemes or its subsidiary.



                         The Abaqus Software is a product of:

                           Dassault Systemes SIMULIA Corp.
                           1301 Atwood Avenue, Suite 101W
                              Johnston, RI 02919, USA
 


                   The Abaqus Software is available only under license
                   from Dassault Systemes or its subsidiary and may be
                   used or reproduced only in accordance with the terms
                   of such license.
 
                          On machine ME-ESTRADALAB04 
                          you are authorized to run
                          Abaqus/Standard until 31-Jul-2024

                          Your site id is: 200000000004058 


 
                    For assistance or any other information you may
                    obtain contact information for your local office
                    from the world wide web at:

                      http://www.3ds.com/products/simulia/locations/

 
                * * * * * * * * * * * * * * * * * * * * * * * * * * * * * * 
                *                                                         * 
                *                   *****************                     * 
                *                   *  N O T I C E  *                     * 
                *                   *****************                     * 
                *                                                         * 
                *                                                         * 
                *                       Abaqus 2021                       * 
                *                                                         * 
                *          BUILD ID: 2020_03_06-09.50.37 167380           * 
                *                                                         * 
                *                                                         * 
                *  Please make sure you are using                         * 
                *  release Abaqus 2021 manuals                            * 
                *  plus the notes accompanying this release.              * 
                *                                                         * 
                *                                                         * 
                *                                                         * 
                *                                                         * 
                *                                                         * 
                *   This program may not be used for commercial purposes  * 
                *           without payment of a commercial fee.          * 
                *                                                         * 
                * * * * * * * * * * * * * * * * * * * * * * * * * * * * * * 


 



     PROCESSING PART, INSTANCE, AND ASSEMBLY INFORMATION
   *******************************************************


     END PROCESSING PART, INSTANCE, AND ASSEMBLY INFORMATION
   ***********************************************************




     OPTIONS BEING PROCESSED
   ***************************


  *Heading
  *Node
  *Element, type=C3D10H
  *Nset, nset=ASSEMBLY_PART-1-1_SET-1
  *Elset, elset=ASSEMBLY_PART-1-1_SET-1
  *Nset, nset=ASSEMBLY_BC-SET-1
  *Nset, nset=ASSEMBLY_BC-SET-2
  *Elset, elset=ASSEMBLY_BC-SET-1
  *Elset, elset=ASSEMBLY_BC-SET-2
  *material, name=MATERIAL-1
  *hyperelastic, n=3, ogden
  *solidsection, elset=ASSEMBLY_PART-1-1_SET-1, controls=EC-1, material=MATERIAL-1
  *sectioncontrols, name=EC-1, hourglass=ENHANCED

 ***WARNING: THE PARAMETER HOURGLASS = ENHANCED ON THE SECTION CONTROLS OPTION 
             IS RELEVANT FOR THESE ELEMENTS: C3D8R, CAX4R, CGAX4R, CPEG4R, 
             CPE4R, CPS4R, M3D4R, S4R, SC8R AND THEIR HYBRID, THERMAL AND 
             PRESSURE COUNTERPARTS WHEREVER APPLICABLE. IT IS ALSO RELEVANT FOR 
             ALL TYPES OF MODIFIED TRIANGULAR AND TETRAHEDRAL ELEMENTS. THIS 
             WARNING CAN BE IGNORED IF THE FEATURE IS APPLIED TO THESE ELEMENT 
             TYPES ONLY.
  *solidsection, elset=ASSEMBLY_PART-1-1_SET-1, controls=EC-1, material=MATERIAL-1
  *boundary
  *boundary
  *boundary
  *boundary
  *output, field, variable=PRESELECT
  *output, history, variable=PRESELECT
  *output, field, variable=PRESELECT
  *output, history, variable=PRESELECT
  *output, field, variable=PRESELECT
  *output, history, variable=PRESELECT
  
                               E L E M E N T   Q U A L I T Y  C H E C K S        
  
  
 ***NOTES: DISTORTED ISOPARAMETRIC ELEMENTS: ANGLE BETWEEN ISOPARAMETRIC LINES 
           IS LESS THAN 45 DEGREES OR GREATER THAN 135 DEGREES.
  
           TETRAHEDRAL QUALITY MEASURE: VOLUME OF TETRAHEDRON DIVIDED BY THE 
           VOLUME OF EQUILATERAL TETRAHEDRON WITH SAME CIRCUMSPHERE RADIUS; 
           0 FOR DEGENERATE TETRAHEDRON AND 1 FOR EQUILATERIAL TETRAHEDRON. IT 
           IS RECOMMENDED THAT THE TETRAHEDRAL QUALITY MEASURE BE GREATER THAN 
           0.02, THE MIN INTERIOR (DIHEDRAL) ANGLE BE GREATER THAN 10 DEGREES, 
           AND THE MAX INTERIOR (DIHEDRAL) ANGLE BE LESS THAN 160 DEGREES. 
  
           MODIFIED TETRAHEDRAL QUALITY MEASURE: ANGLES BETWEEN THE TWO LINE 
           SEGMENTS ON EACH EDGE; THE EDGES OF MODIFIED TETRAHEDRAL SHOULD BE 
           AS STRAIGHT AS POSSIBLE. IT IS RECOMMENDED THAT THE ANGLE BETWEEN 
           THE TWO LINE SEGMENTS ON EACH EDGE IS BETWEEN 160 AND 180 DEGREES. 
  
           TRIANGULAR QUALITY MEASURE: AREA OF TRIANGLE DIVIDED BY THE AREA OF 
           EQUILATERAL TRIANGLE WITH SAME CIRCUMCIRCLE RADIUS; 0 FOR DEGENERATE 
           TRIANGLE AND 1 FOR EQUILATERAL TRIANGLE. IT IS RECOMMENDED THAT THE
           TRIANGULAR QUALITY MEASURE BE GREATER THAN 0.01, THE MIN INTERIOR 
           ANGLE BE GREATER THAN 10 DEGREES, AND THE MAX INTERIOR ANGLE BE LESS 
           THAN 160 DEGREES. 
  
           NODAL ADJUSTMENTS ARISING FROM CONTACT INTERACTIONS AND/OR TIE 
           CONSTRAINTS CAN CAUSE SEVERE ELEMENT DISTORTION. IT MAY BE NECESSARY 
           TO REMESH IN ORDER TO REDUCE THE AMOUNT OF ADJUSTMENT. 

 ***WARNING: 1712 elements are distorted. Either the isoparametric angles are 
             out of the suggested limits or the triangular or tetrahedral 
             quality measure is bad. The elements have been identified in 
             element set WarnElemDistorted.
  
 --------------------------------------------------------------------------------
 Distorted tetrahedral elements
  
      Element       Quality measure     Min angle        Max angle     Adjusted nodes 
 ------------------ ---------------- ---------------- ---------------- -------------- 
         PART-1-1.1        0.0818781          9.68077          158.854       NO       
         PART-1-1.2        0.0176952          3.06828          119.749       NO       
         PART-1-1.3        0.0568705          2.92533          115.876       NO       
         PART-1-1.4        0.0448438          2.71661          117.902       NO       
         PART-1-1.5       0.00182075         0.940162          164.111       NO       
         PART-1-1.6        0.0489718          2.87479          94.2661       NO       
         PART-1-1.7        0.0189887          3.46285           101.53       NO       
         PART-1-1.9      0.000174727          11.7117          127.497       NO       
        PART-1-1.10        0.0175072          2.78172          91.9235       NO       
        PART-1-1.11         0.009876           5.3582          139.118       NO       
        PART-1-1.12        0.0444417          3.57145          105.442       NO       
        PART-1-1.13        0.0205808          1.29342           144.77       NO       
        PART-1-1.14        0.0583474          3.87168          98.0438       NO       
        PART-1-1.16        0.0613569          3.34065          116.612       NO       
        PART-1-1.17         0.012675          10.2854           117.51       NO       
        PART-1-1.18        0.0116175          9.84329          114.838       NO       
        PART-1-1.20        0.0148734           7.9686          133.939       NO       
        PART-1-1.21        0.0395447          6.28258          129.464       NO       
        PART-1-1.22        0.0352482          6.64821          126.217       NO       
        PART-1-1.23        0.0505553          3.31483          118.489       NO       
        PART-1-1.24       0.00849669          1.24089          147.313       NO       
        PART-1-1.26       0.00729029          1.02932          153.695       NO       
        PART-1-1.27        0.0360007          1.80785          132.533       NO       
        PART-1-1.29        0.0685874          3.09825          112.169       NO       
        PART-1-1.30         0.025373          2.46486          118.122       NO       
        PART-1-1.31        0.0300976          2.65989          123.245       NO       
        PART-1-1.32         0.044943          2.34421          125.017       NO       
        PART-1-1.33        0.0327957          2.00191          120.112       NO       
        PART-1-1.34        0.0194508          1.12022          151.409       NO       
        PART-1-1.35         0.019494          1.71386          142.782       NO       
        PART-1-1.36        0.0446734          2.47814          121.585       NO       
        PART-1-1.37      0.000174727          4.68957          133.133       NO       
        PART-1-1.38        0.0454286          2.56056          118.513       NO       
        PART-1-1.39       0.00274492          3.36029          130.323       NO       
        PART-1-1.40       0.00919037          5.99162          118.152       NO       
        PART-1-1.41        0.0623423          3.21474          121.246       NO       
        PART-1-1.42       0.00364774          2.66673          135.512       NO       
        PART-1-1.43        0.0651967          3.02055           113.98       NO       
        PART-1-1.44         0.023272          2.86375          103.259       NO       
        PART-1-1.45        0.0670743          3.01221           112.83       NO       
        PART-1-1.46         0.122763          8.58065          166.281       NO       
        PART-1-1.47       0.00116488          1.00275          163.981       NO       
        PART-1-1.48        0.0310208          5.40965          135.737       NO       
        PART-1-1.49         0.025373          2.29752          120.067       NO       
        PART-1-1.50        0.0299162          6.23703          130.998       NO       
        PART-1-1.51      0.000247546          1.52755          155.442       NO       
        PART-1-1.52      0.000371601          3.35463          149.625       NO       
        PART-1-1.53       0.00399677          4.11724          136.463       NO       
        PART-1-1.54        0.0227628          2.53654          115.645       NO       
        PART-1-1.55      0.000218811          2.58807          146.449       NO       
        PART-1-1.56        0.0496575          3.68101          104.998       NO       
        PART-1-1.57        0.0227628           2.1708          117.723       NO       
        PART-1-1.58        0.0571291          3.41706          116.977       NO       
        PART-1-1.59        0.0469089          2.13486          131.953       NO       
        PART-1-1.60        0.0195336          1.24034          149.627       NO       
        PART-1-1.61        0.0129191         0.986054          157.129       NO       
        PART-1-1.62        0.0516429          4.28915          122.255       NO       
        PART-1-1.64        0.0563846           2.8884          107.548       NO       
        PART-1-1.65        0.0176668          2.53205          128.175       NO       
        PART-1-1.66        0.0103904          2.27521          146.935       NO       
        PART-1-1.67        0.0844086          4.63661          106.442       NO       
        PART-1-1.68        0.0112072          23.6893          147.364       NO       
        PART-1-1.69       0.00547493          1.70673          152.247       NO       
        PART-1-1.70        0.0544987          5.08892          109.823       NO       
        PART-1-1.71        0.0499282          4.06371          120.453       NO       
        PART-1-1.72        0.0151145          1.86939          136.884       NO       
        PART-1-1.74        0.0180783          1.09135          158.535       NO       
        PART-1-1.75         0.016691          1.59123          153.045       NO       
        PART-1-1.76       0.00891699         0.600982          165.815       NO       
        PART-1-1.77        0.0376615          3.67978          118.619       NO       
        PART-1-1.78        0.0246431          3.39175          118.353       NO       
        PART-1-1.79        0.0602069          3.03044          112.833       NO       
        PART-1-1.80        0.0458081          4.04474          114.632       NO       
        PART-1-1.81        0.0308692          2.43265          119.202       NO       
        PART-1-1.82        0.0511544          2.83103          116.938       NO       
        PART-1-1.83        0.0443659          2.62908          120.434       NO       
        PART-1-1.84        0.0710052          3.16262          107.793       NO       
        PART-1-1.85        0.0552272          2.76229          115.067       NO       
        PART-1-1.86        0.0456654          3.31077          123.815       NO       
        PART-1-1.87        0.0669825           3.0321          112.628       NO       
        PART-1-1.88        0.0223467          1.51725          140.341       NO       
        PART-1-1.89       0.00212805          4.37741          131.125       NO       
        PART-1-1.90        0.0223467          1.55536           139.21       NO       
        PART-1-1.91        0.0573969          3.58893          119.456       NO       
        PART-1-1.92        0.0675724          4.18881          111.311       NO       
        PART-1-1.93        0.0321811          2.37265           120.73       NO       
        PART-1-1.94       0.00132469          2.10896          151.579       NO       
        PART-1-1.95        0.0219006          3.42081          111.105       NO       
        PART-1-1.96        0.0145888          2.28783          113.842       NO       
        PART-1-1.97        0.0399235          3.10641          114.974       NO       
        PART-1-1.98        0.0257829          1.36094          152.687       NO       
        PART-1-1.99        0.0394749          2.25117           176.38       NO       
       PART-1-1.101        0.0023707          4.65368          118.222       NO       
       PART-1-1.102       0.00126898          8.50668          113.021       NO       
       PART-1-1.103        0.0643255          4.49421           114.39       NO       
       PART-1-1.104        0.0296507           2.5353          141.684       NO       
       PART-1-1.105        0.0395692          2.66502          127.565       NO       
       PART-1-1.106        0.0372937           2.5295          129.104       NO       
       PART-1-1.108        0.0760503          3.54735          97.1777       NO       
       PART-1-1.109       0.00129716          1.26101          174.749       NO       
       PART-1-1.110        0.0727405          4.68951          108.873       NO       
       PART-1-1.111        0.0213058          1.94952          128.171       NO       
       PART-1-1.112        0.0388278          2.56141          118.938       NO       
       PART-1-1.113        0.0375765          3.34294          118.005       NO       
       PART-1-1.114        0.0980721          6.39533           95.201       NO       
       PART-1-1.115        0.0762203          4.51661          111.737       NO       
       PART-1-1.116        0.0649838          4.29912          115.984       NO       
       PART-1-1.117         0.034857          3.02205          127.642       NO       
       PART-1-1.118      0.000568038          1.74823          157.871       NO       
       PART-1-1.119        0.0616606          7.89279          143.635       NO       
       PART-1-1.120        0.0925133          6.25521          98.5923       NO       
       PART-1-1.121        0.0525359          2.70944           116.04       NO       
       PART-1-1.122        0.0216951          2.22474          123.359       NO       
       PART-1-1.124        0.0509075          3.47281          116.646       NO       
       PART-1-1.125        0.0529347          4.03016          119.734       NO       
       PART-1-1.127      0.000590514          1.53108          168.355       NO       
       PART-1-1.128        0.0979746          6.32297          95.4408       NO       
       PART-1-1.130       0.00125558          8.35354          100.994       NO       
       PART-1-1.131        0.0864813          4.67755          106.837       NO       
       PART-1-1.132        0.0238341          1.17363          156.772       NO       
       PART-1-1.133         0.071866          4.41838          108.072       NO       
       PART-1-1.134       0.00195433          14.2436          98.4716       NO       
       PART-1-1.135       0.00198266          12.6086          109.556       NO       
       PART-1-1.136       0.00211212          4.34927          102.782       NO       
       PART-1-1.137        0.0208307          1.76041          135.573       NO       
       PART-1-1.138        0.0444031          3.43828          117.381       NO       
       PART-1-1.139      0.000405535          2.26116          146.723       NO       
       PART-1-1.140        0.0213058          1.99114          129.653       NO       
       PART-1-1.141        0.0567541          2.97907          113.956       NO       
       PART-1-1.142        0.0261025          2.17225          122.862       NO       
       PART-1-1.143        0.0461729          2.27325           127.19       NO       
       PART-1-1.144        0.0261025          2.32743          121.052       NO       
       PART-1-1.145        0.0322913          3.12976          117.602       NO       
       PART-1-1.146       0.00193728           6.2429          114.927       NO       
       PART-1-1.147      0.000822573         0.801287          163.164       NO       
       PART-1-1.148        0.0584668          2.80724          106.474       NO       
       PART-1-1.150      0.000650074          1.49333          159.902       NO       
       PART-1-1.151         0.054972           2.6976           118.31       NO       
       PART-1-1.152        0.0282532          1.90246          124.906       NO       
       PART-1-1.153        0.0168978          7.59917          157.647       NO       
       PART-1-1.154        0.0150447          3.88727          94.6463       NO       
       PART-1-1.155         0.129574          7.40393          97.9521       NO       
       PART-1-1.156      0.000990018          1.25938          169.766       NO       
       PART-1-1.159        0.0551362          2.90779          107.882       NO       
       PART-1-1.160        0.0230225          2.69269          110.378       NO       
       PART-1-1.161        0.0208307          1.72798          134.286       NO       
       PART-1-1.162         0.021233          4.95182          112.597       NO       
       PART-1-1.163      0.000545867          2.55518          143.853       NO       
       PART-1-1.164        0.0370485          3.29459          122.168       NO       
       PART-1-1.165      0.000825898          4.07153          123.025       NO       
       PART-1-1.166        0.0533246          2.91654          108.171       NO       
       PART-1-1.167        0.0050569          13.4311          152.162       NO       
       PART-1-1.168        0.0507355          3.99012          111.808       NO       
       PART-1-1.169        0.0116187          9.84246          114.839       NO       
       PART-1-1.170       0.00868865          1.72159          143.049       NO       
       PART-1-1.171        0.0159409          10.2029          120.013       NO       
       PART-1-1.172        0.0538321          3.72192          104.486       NO       
       PART-1-1.174      0.000229761          5.06503          129.342       NO       
       PART-1-1.175        0.0611151          7.75481          152.685       NO       
       PART-1-1.177         0.105264          6.95507          99.6553       NO       
       PART-1-1.178        0.0624951          3.16306          98.6924       NO       
       PART-1-1.179        0.0160466          2.74294          108.234       NO       
       PART-1-1.180        0.0178558          1.77739          133.805       NO       
       PART-1-1.181        0.0680314           3.4548           98.456       NO       
       PART-1-1.182      0.000763094          5.32088          132.827       NO       
       PART-1-1.183      0.000676815          2.28277          143.427       NO       
       PART-1-1.184       0.00029894          3.79743          134.924       NO       
       PART-1-1.185       0.00124269          6.49007           128.79       NO       
       PART-1-1.187        0.0444141          3.47769          115.754       NO       
       PART-1-1.188        0.0570193          5.44034          103.054       NO       
       PART-1-1.189       0.00441659          2.34111          138.269       NO       
       PART-1-1.190        0.0300742          2.08581          118.687       NO       
       PART-1-1.191       0.00441659          2.19364          140.337       NO       
       PART-1-1.193       0.00365434          13.7429          146.705       NO       
       PART-1-1.194        0.0242135          8.03323          119.945       NO       
       PART-1-1.195        0.0104694          4.45106          134.009       NO       
       PART-1-1.196        0.0121532           4.2915          136.154       NO       
       PART-1-1.197        0.0396032          2.28914          109.162       NO       
       PART-1-1.198        0.0001316          2.58265          150.097       NO       
       PART-1-1.199        0.0300742          2.20151           120.17       NO       
       PART-1-1.200        0.0588786          3.82464          113.638       NO       
       PART-1-1.201        0.0738662          4.14717          111.259       NO       
       PART-1-1.202        0.0436004          3.38529          118.413       NO       
       PART-1-1.203       0.00583669         0.957956          162.151       NO       
       PART-1-1.205       0.00029894          5.95546           139.48       NO       
       PART-1-1.206        0.0469842          5.33533          105.088       NO       
       PART-1-1.209      0.000545867          4.53504          139.814       NO       
       PART-1-1.210        0.0673042          4.79576          101.262       NO       
       PART-1-1.211       0.00106566          7.60418          135.371       NO       
       PART-1-1.212       0.00369293          20.4389          140.694       NO       
       PART-1-1.213       0.00583669          0.71721          161.665       NO       
       PART-1-1.214        0.0484685          3.52199          112.946       NO       
       PART-1-1.215        0.0721267          5.80251          103.896       NO       
       PART-1-1.217       0.00103419          5.82616          142.278       NO       
       PART-1-1.218        0.0716734          3.52241          97.7254       NO       
       PART-1-1.219        0.0160466           3.6422           104.97       NO       
       PART-1-1.220      0.000875578          5.36426          100.907       NO       
       PART-1-1.221       0.00402974          2.78045          141.922       NO       
       PART-1-1.222        0.0736081          3.23169          101.378       NO       
       PART-1-1.223        0.0739673          3.26041          99.6536       NO       
       PART-1-1.224        0.0571446           5.6527          99.1758       NO       
       PART-1-1.225        0.0422632          3.26856          121.274       NO       
       PART-1-1.229        0.0108399          9.17457          111.553       NO       
       PART-1-1.230       0.00829002          1.95811           146.49       NO       
       PART-1-1.231        0.0180597          1.54235          141.383       NO       
       PART-1-1.232        0.0453223            2.284           128.49       NO       
       PART-1-1.233        0.0203365          1.57081          139.638       NO       
       PART-1-1.234        0.0229251          3.01748          91.8016       NO       
       PART-1-1.235        0.0131666          1.65684           141.24       NO       
       PART-1-1.236      0.000356052          1.42032          161.425       NO       
       PART-1-1.237        0.0152114          1.23237          144.433       NO       
       PART-1-1.238      0.000875578          9.26896          95.1988       NO       
       PART-1-1.239        0.0617412          2.99993          114.722       NO       
       PART-1-1.240        0.0508834          2.90977          108.412       NO       
       PART-1-1.241       0.00084271          1.69505           150.21       NO       
       PART-1-1.242        0.0216577          8.68801          155.235       NO       
       PART-1-1.244        0.0478433          2.88719          108.604       NO       
       PART-1-1.245      0.000852078          3.73059          128.267       NO       
       PART-1-1.247      0.000582716          4.78015          128.268       NO       
       PART-1-1.248        0.0633523           2.9596          105.437       NO       
       PART-1-1.249        0.0434738          2.52174          119.192       NO       
       PART-1-1.250         0.044467          4.00064          104.943       NO       
       PART-1-1.251        0.0261093          2.78059          102.182       NO       
       PART-1-1.252        0.0152949          2.93665          99.3515       NO       
       PART-1-1.253       0.00985301          7.56448          109.003       NO       
       PART-1-1.254        0.0370909          3.21312          116.313       NO       
       PART-1-1.255        0.0217495           1.6463          134.685       NO       
       PART-1-1.256        0.0102775          8.39103          107.966       NO       
       PART-1-1.257        0.0203365          1.52866          140.806       NO       
       PART-1-1.258      0.000760142          3.16669          134.888       NO       
       PART-1-1.259        0.0221202          2.03423          130.152       NO       
       PART-1-1.260       0.00547493         0.990012          153.786       NO       
       PART-1-1.261        0.0413167          3.34845          116.957       NO       
       PART-1-1.262       0.00345012          1.24123          152.506       NO       
       PART-1-1.263       0.00284802          1.42763          149.942       NO       
       PART-1-1.264        0.0751492          5.01872          97.8934       NO       
       PART-1-1.265        0.0545063          3.27812          119.139       NO       
       PART-1-1.266        0.0661513          3.24753          95.8797       NO       
       PART-1-1.267        0.0153987          41.5547          143.014       NO       
       PART-1-1.268        0.0169228          2.40241          118.659       NO       
       PART-1-1.269        0.0686539          4.64509          113.208       NO       
       PART-1-1.270       0.00529907          2.03724          153.087       NO       
       PART-1-1.273        0.0688487            5.303          105.347       NO       
       PART-1-1.274       0.00837904         0.961554          161.102       NO       
       PART-1-1.275        0.0656494           3.6186          110.477       NO       
       PART-1-1.277        0.0510737          2.88186           129.34       NO       
       PART-1-1.278        0.0109828          1.22226          146.719       NO       
       PART-1-1.279        0.0613351          3.12885          112.464       NO       
       PART-1-1.280        0.0625785          2.76004          139.646       NO       
       PART-1-1.281       0.00083476          2.86035          137.737       NO       
       PART-1-1.282        0.0297338          3.16929          136.505       NO       
       PART-1-1.283       0.00553651          3.33899          131.544       NO       
       PART-1-1.284        0.0551494          5.69844          101.252       NO       
       PART-1-1.285         0.063746          3.22005          110.664       NO       
       PART-1-1.286         0.038027          2.34915          129.619       NO       
       PART-1-1.287      0.000650074         0.945084          161.279       NO       
       PART-1-1.288       0.00183768           3.1632          125.245       NO       
       PART-1-1.289        0.0216951          2.17086           121.68       NO       
       PART-1-1.290      0.000463369          1.38386          154.769       NO       
       PART-1-1.291      0.000572772          3.09978          141.745       NO       
       PART-1-1.292      0.000573137          3.02859          147.473       NO       
       PART-1-1.293      0.000241922         0.591796          172.828       NO       
       PART-1-1.294         0.061179          2.64119          123.369       NO       
       PART-1-1.295       0.00573764          5.09041          108.853       NO       
       PART-1-1.296      0.000676815          4.23895          139.252       NO       
       PART-1-1.297        0.0299186           6.2371          130.995       NO       
       PART-1-1.298       0.00169886           3.9515          134.163       NO       
       PART-1-1.299        0.0310236          5.40979          135.734       NO       
       PART-1-1.300        0.0230225          2.38556          108.555       NO       
       PART-1-1.301        0.0013841          1.07173          155.572       NO       
       PART-1-1.302        0.0319271          2.51808          133.765       NO       
       PART-1-1.303        0.0177795           1.7823          143.687       NO       
       PART-1-1.304        0.0195336          1.14296          148.875       NO       
       PART-1-1.305       0.00169886          2.22981          138.525       NO       
       PART-1-1.306      0.000463369          1.99161          155.972       NO       
       PART-1-1.307       0.00377907           5.8568          106.157       NO       
       PART-1-1.308         0.034522          1.62122          130.983       NO       
       PART-1-1.309        0.0419763          2.32544          129.085       NO       
       PART-1-1.310        0.0261093          2.53158          104.429       NO       
       PART-1-1.311        0.0759877          3.40159          94.5537       NO       
       PART-1-1.313        0.0132021          2.19184          114.564       NO       
       PART-1-1.314        0.0524473          2.64365          119.096       NO       
       PART-1-1.315        0.0222801          1.01704          153.998       NO       
       PART-1-1.316       0.00125785         0.936062          160.029       NO       
       PART-1-1.317       0.00705985          1.01573          161.661       NO       
       PART-1-1.318        0.0491775          2.86652           93.987       NO       
       PART-1-1.319        0.0391957          2.02366          99.9727       NO       
       PART-1-1.321         0.049264          2.85632          93.6991       NO       
       PART-1-1.322      0.000324843          2.16113          155.165       NO       
       PART-1-1.323        0.0225187          1.32675          154.534       NO       
       PART-1-1.324       0.00508621          2.96309          139.992       NO       
       PART-1-1.325       0.00028983          4.04603          173.637       NO       
       PART-1-1.326      0.000324843          1.59423          153.943       NO       
       PART-1-1.327       0.00552048          4.55749           114.48       NO       
       PART-1-1.328        0.0565706          2.55593          125.515       NO       
       PART-1-1.329        0.0128036          1.18991          146.683       NO       
       PART-1-1.330        0.0358166          1.71001          128.361       NO       
       PART-1-1.331       0.00102124          1.10501           157.74       NO       
       PART-1-1.332        0.0175072          3.54079          92.5354       NO       
       PART-1-1.333         0.061516          3.82534          109.144       NO       
       PART-1-1.334       0.00515605          2.56257          143.956       NO       
       PART-1-1.335       0.00206191          7.02775          111.825       NO       
       PART-1-1.336        0.0733199          3.20697           103.06       NO       
       PART-1-1.337        0.0299515          4.65851          139.987       NO       
       PART-1-1.338       0.00202815          4.46801          95.8121       NO       
       PART-1-1.339        0.0656405          4.00805           101.84       NO       
       PART-1-1.340        0.0656619           3.0568          113.484       NO       
       PART-1-1.341         0.059763          4.33061          112.278       NO       
       PART-1-1.342       0.00211212          7.46551          109.092       NO       
       PART-1-1.343       0.00860302           4.5885          135.127       NO       
       PART-1-1.347       0.00251035          4.28751          121.115       NO       
       PART-1-1.348       0.00251035          3.96746          125.082       NO       
       PART-1-1.349       0.00274492          3.63995          126.963       NO       
       PART-1-1.350        0.0310236          5.40979          135.734       NO       
       PART-1-1.351       0.00351891          1.12446          154.104       NO       
       PART-1-1.352        0.0342177          2.74173          134.049       NO       
       PART-1-1.353         0.139449          7.76948           92.403       NO       
       PART-1-1.354       0.00310574          3.09435          131.614       NO       
       PART-1-1.355       0.00274492          3.36029          130.323       NO       
       PART-1-1.356        0.0229204          1.56413          153.417       NO       
       PART-1-1.357        0.0676315          2.95264          104.321       NO       
       PART-1-1.358        0.0560921          2.82389          107.769       NO       
       PART-1-1.359        0.0441312          2.28543          127.606       NO       
       PART-1-1.360        0.0631061          3.98223          100.826       NO       
       PART-1-1.362        0.0230566          2.04606          133.203       NO       
       PART-1-1.363      0.000760142          4.87136          137.814       NO       
       PART-1-1.364        0.0383442          2.29249          101.342       NO       
       PART-1-1.365      0.000576662          2.67617           144.97       NO       
       PART-1-1.366       0.00850886          1.85535          112.588       NO       
       PART-1-1.367       0.00379268          1.04436          161.807       NO       
       PART-1-1.368        0.0465628          2.23558          128.212       NO       
       PART-1-1.369        0.0062873          1.84378          148.738       NO       
       PART-1-1.370        0.0383442           2.0621          102.988       NO       
       PART-1-1.371        0.0249161          2.39925          113.019       NO       
       PART-1-1.372         0.034752          3.75414          104.327       NO       
       PART-1-1.373        0.0509275          2.71692          109.323       NO       
       PART-1-1.374         0.051627          3.42987          101.211       NO       
       PART-1-1.375        0.0364283          3.28509          118.967       NO       
       PART-1-1.376        0.0688892          3.77466          108.223       NO       
       PART-1-1.377        0.0617482          2.73686          140.825       NO       
       PART-1-1.378       0.00108628          2.99762          146.127       NO       
       PART-1-1.379        0.0062487          1.55098          156.053       NO       
       PART-1-1.380       0.00206753          3.02165          128.871       NO       
       PART-1-1.381         0.067936           4.0045          102.541       NO       
       PART-1-1.382        0.0254853          2.21563          116.923       NO       
       PART-1-1.383         0.010632         0.910759          164.379       NO       
       PART-1-1.385        0.0147352         0.840464          165.387       NO       
       PART-1-1.386        0.0626895          2.69555          121.391       NO       
       PART-1-1.388        0.0131578          3.85853          141.462       NO       
       PART-1-1.389         0.068606          2.98733          103.035       NO       
       PART-1-1.390        0.0127234          2.08266           149.58       NO       
       PART-1-1.391       0.00133928          2.43399          149.706       NO       
       PART-1-1.392        0.0731539          3.19008          104.698       NO       
       PART-1-1.393        0.0614393          2.72022          122.008       NO       
       PART-1-1.394        0.0268489           1.2427          155.517       NO       
       PART-1-1.395       0.00212805          2.47059          136.074       NO       
       PART-1-1.396        0.0550365          2.85424          106.057       NO       
       PART-1-1.397        0.0555453          3.19804          112.732       NO       
       PART-1-1.399        0.0657765          3.29946          108.772       NO       
       PART-1-1.400        0.0656912          5.64029          106.318       NO       
       PART-1-1.401        0.0125169          1.19986          151.667       NO       
       PART-1-1.402        0.0169228          3.18044          115.877       NO       
       PART-1-1.403        0.0292121           1.9262          126.812       NO       
       PART-1-1.404       0.00961544         0.775651          166.109       NO       
       PART-1-1.405         0.069298          4.85853          101.148       NO       
       PART-1-1.406        0.0267369           4.8667          156.562       NO       
       PART-1-1.407        0.0306883          1.73432          128.063       NO       
       PART-1-1.408        0.0164892          2.66715          110.407       NO       
       PART-1-1.410       0.00024348           12.423          108.161       NO       
       PART-1-1.411       0.00690492          1.83001          142.738       NO       
       PART-1-1.412        0.0126763          10.2845           117.51       NO       
       PART-1-1.413        0.0203332          5.11395            108.4       NO       
       PART-1-1.414         0.066867          4.97893          98.0183       NO       
       PART-1-1.415        0.0725577          3.16231          107.842       NO       
       PART-1-1.416        0.0295954          6.99826          126.039       NO       
       PART-1-1.417       0.00111734          1.10774          156.463       NO       
       PART-1-1.418        0.0626966          3.93813          114.324       NO       
       PART-1-1.420        0.0617784           4.3581          104.087       NO       
       PART-1-1.421        0.0492174          2.84313          93.4035       NO       
       PART-1-1.422      0.000568038          1.29838          156.758       NO       
       PART-1-1.423        0.0939306          4.61009           105.83       NO       
       PART-1-1.424        0.0501856          4.09043          114.562       NO       
       PART-1-1.425        0.0865553          4.41625          108.641       NO       
       PART-1-1.426      0.000134576         0.618207          172.547       NO       
       PART-1-1.427       0.00054133          4.37693          125.672       NO       
       PART-1-1.430      0.000534312          1.46468          154.725       NO       
       PART-1-1.432        0.0515758          5.58312          103.247       NO       
       PART-1-1.433       0.00566247          2.79702          138.182       NO       
       PART-1-1.434        0.0723721          4.03201          101.696       NO       
       PART-1-1.436        0.0279768          4.57803          141.736       NO       
       PART-1-1.437        0.0591186          3.08001          100.554       NO       
       PART-1-1.438        0.0164892          3.35809          112.527       NO       
       PART-1-1.439      0.000690612          3.13203          174.421       NO       
       PART-1-1.440      0.000780628          9.74788          95.8546       NO       
       PART-1-1.441       0.00033794          6.27788          105.376       NO       
       PART-1-1.442        0.0121653          1.13446          160.423       NO       
       PART-1-1.443       0.00582686          15.6497          137.015       NO       
       PART-1-1.444      0.000854246          3.18164          135.391       NO       
       PART-1-1.445        0.0723132          4.59143          111.999       NO       
       PART-1-1.446        0.0111356           2.1905          137.168       NO       
       PART-1-1.447        0.0217495          1.81156          135.858       NO       
       PART-1-1.448        0.0355693          2.61976          128.407       NO       
       PART-1-1.449      0.000294471          7.53901          132.238       NO       
       PART-1-1.450        0.0314187          3.19381          121.227       NO       
       PART-1-1.451        0.0159048          2.12947          138.325       NO       
       PART-1-1.452        0.0237088          2.64186          92.5448       NO       
       PART-1-1.453        0.0561145          3.45614          113.543       NO       
       PART-1-1.455        0.0241973          2.98592          101.644       NO       
       PART-1-1.456        0.0472493          2.22067          129.609       NO       
       PART-1-1.457        0.0848153          4.26471          96.9322       NO       
       PART-1-1.458        0.0323414          2.46149          144.948       NO       
       PART-1-1.459        0.0239238          3.04391          95.2107       NO       
       PART-1-1.460      0.000997835          7.22383          97.4644       NO       
       PART-1-1.461        0.0527734          3.26767          117.952       NO       
       PART-1-1.462        0.0239238          2.62485          98.1814       NO       
       PART-1-1.463        0.0306883          1.82951          126.779       NO       
       PART-1-1.464        0.0166333          1.15072          150.423       NO       
       PART-1-1.465         0.018041          3.57242          94.3163       NO       
       PART-1-1.466        0.0234917          2.98464          96.6563       NO       
       PART-1-1.467       0.00849669          1.77317          148.199       NO       
       PART-1-1.468       0.00715258          1.11603          152.999       NO       
       PART-1-1.469        0.0573994          3.60372          108.693       NO       
       PART-1-1.470        0.0467171          2.48481          114.676       NO       
       PART-1-1.471       0.00103092          3.34988          146.743       NO       
       PART-1-1.472      0.000245703          1.51829          160.931       NO       
       PART-1-1.473        0.0234917          2.60561          94.1963       NO       
       PART-1-1.474      0.000405535          3.07359          148.231       NO       
       PART-1-1.475        0.0185626          2.06107          139.264       NO       
       PART-1-1.476        0.0157267          2.68006          102.091       NO       
       PART-1-1.477        0.0195236          3.30483          131.144       NO       
       PART-1-1.478        0.0643787          4.76413          120.933       NO       
       PART-1-1.479        0.0630498          3.10846          97.9494       NO       
       PART-1-1.481        0.0667885          2.92641          105.559       NO       
       PART-1-1.482       0.00217184           3.5401          120.178       NO       
       PART-1-1.483        0.0231511          4.27803          120.414       NO       
       PART-1-1.484        0.0433831          3.68723          120.311       NO       
       PART-1-1.485      0.000898404          1.34786          154.492       NO       
       PART-1-1.486        0.0317596          2.35651          135.635       NO       
       PART-1-1.487        0.0717671           3.2137          106.037       NO       
       PART-1-1.488        0.0170519          3.18624          108.281       NO       
       PART-1-1.490        0.0612252          3.04607          100.598       NO       
       PART-1-1.491         0.030552          1.75088           149.81       NO       
       PART-1-1.492      0.000204693          3.35368          151.111       NO       
       PART-1-1.493         0.066445          4.64514          104.937       NO       
       PART-1-1.494         0.053662          3.64508          94.3009       NO       
       PART-1-1.495      0.000240979           6.7883          137.483       NO       
       PART-1-1.496        0.0170519          2.52235          106.294       NO       
       PART-1-1.497        0.0735322          3.33272           102.32       NO       
       PART-1-1.498        0.0725831          3.26963          104.213       NO       
       PART-1-1.499      0.000822573          1.22891           162.05       NO       
       PART-1-1.500        0.0274026          1.50982          154.527       NO       
       PART-1-1.501        0.0758951          3.43967          93.6471       NO       
       PART-1-1.502        0.0157267          3.42096          104.242       NO       
       PART-1-1.503        0.0666893          3.29821          96.3259       NO       
       PART-1-1.505        0.0328669          3.73939           128.95       NO       
       PART-1-1.506        0.0205808          1.40958          145.646       NO       
       PART-1-1.507        0.0156327          1.56381          142.005       NO       
       PART-1-1.508        0.0162361         0.959361           158.02       NO       
       PART-1-1.509        0.0156327          1.61666          140.747       NO       
       PART-1-1.510        0.0392612          2.49868          121.871       NO       
       PART-1-1.511        0.0591055           3.0032          104.294       NO       
       PART-1-1.512        0.0237399          1.85197          141.929       NO       
       PART-1-1.513        0.0200774          2.33944          111.067       NO       
       PART-1-1.514        0.0200774          2.90937          112.843       NO       
       PART-1-1.515        0.0582137          2.72092          122.909       NO       
       PART-1-1.516        0.0410501          5.88416          132.706       NO       
       PART-1-1.517       0.00360073           1.7788          152.972       NO       
       PART-1-1.518        0.0729276          3.17537          106.293       NO       
       PART-1-1.519        0.0591237          2.59728          122.906       NO       
       PART-1-1.520        0.0384938          2.50243          136.488       NO       
       PART-1-1.521        0.0378662          2.88556          134.225       NO       
       PART-1-1.522        0.0347688          3.03457          139.055       NO       
       PART-1-1.525         0.123945          7.49422          97.2783       NO       
       PART-1-1.526        0.0397389          3.80152          112.791       NO       
       PART-1-1.527        0.0597426           3.0093          103.099       NO       
       PART-1-1.528        0.0189413           2.3369           112.19       NO       
       PART-1-1.529       0.00868865          1.80349           141.55       NO       
       PART-1-1.530       0.00690492          1.83001          142.738       NO       
       PART-1-1.531        0.0182734          9.67395          119.741       NO       
       PART-1-1.532        0.0183701          15.6708          158.489       NO       
       PART-1-1.533        0.0159409          10.2029          120.013       NO       
       PART-1-1.534        0.0521347          3.50042          98.9726       NO       
       PART-1-1.535        0.0189413          3.04497          109.554       NO       
       PART-1-1.536        0.0550042          2.45241          127.039       NO       
       PART-1-1.537        0.0527924          3.57217           96.668       NO       
       PART-1-1.538       0.00125825          8.91063          95.0687       NO       
       PART-1-1.539        0.0372109          2.44723          122.467       NO       
       PART-1-1.540        0.0017551          38.1765          149.939       NO       
       PART-1-1.541          0.04146          3.44404          122.431       NO       
       PART-1-1.543        0.0274967          1.47973           136.64       NO       
       PART-1-1.544      0.000155521          2.23126          157.986       NO       
       PART-1-1.546         0.014387         0.916507          156.943       NO       
       PART-1-1.547      0.000247546          3.12007          151.934       NO       
       PART-1-1.548        0.0116187          9.84246          114.839       NO       
       PART-1-1.549        0.0108399          9.17457          111.553       NO       
       PART-1-1.550        0.0455111          2.38847           110.99       NO       
       PART-1-1.551        0.0180597          1.58927          140.174       NO       
       PART-1-1.552        0.0212714          1.42141          141.266       NO       
       PART-1-1.553        0.0688487            5.303          105.347       NO       
       PART-1-1.554        0.0665152          2.91242          112.748       NO       
       PART-1-1.555        0.0663575          3.27346          96.9781       NO       
       PART-1-1.557        0.0265293          2.70674            93.58       NO       
       PART-1-1.558        0.0620631          3.07311          99.2923       NO       
       PART-1-1.559        0.0938519          4.42409          93.6341       NO       
       PART-1-1.560        0.0163056          2.59685          104.362       NO       
       PART-1-1.561         0.041631          2.55939          121.195       NO       
       PART-1-1.562        0.0227205          2.81696          94.3134       NO       
       PART-1-1.563        0.0163056          3.29729          106.428       NO       
       PART-1-1.564        0.0416758          3.72985           122.95       NO       
       PART-1-1.565        0.0274967          1.71471           137.54       NO       
       PART-1-1.566       0.00763425          1.37061          155.208       NO       
       PART-1-1.568        0.0688487            5.303          105.347       NO       
       PART-1-1.569        0.0552413          5.16977          116.208       NO       
       PART-1-1.570        0.0214139          2.66703           113.67       NO       
       PART-1-1.571        0.0386982          2.02771          96.9965       NO       
       PART-1-1.572        0.0201547          3.18644          110.448       NO       
       PART-1-1.573        0.0153306            1.859          151.798       NO       
       PART-1-1.575      0.000937723          3.49787          143.166       NO       
       PART-1-1.576         0.029927          2.71511          129.685       NO       
       PART-1-1.577        0.0323714          2.31242          137.482       NO       
       PART-1-1.578        0.0102287          2.30891          147.441       NO       
       PART-1-1.579        0.0755573          4.76227          105.827       NO       
       PART-1-1.580      0.000480676          4.36322           140.52       NO       
       PART-1-1.581        0.0201547          2.48061          113.196       NO       
       PART-1-1.582        0.0396993          2.02776          101.255       NO       
       PART-1-1.583      0.000480676          3.19182          137.504       NO       
       PART-1-1.584        0.0221694          4.66356          116.624       NO       
       PART-1-1.585        0.0210815           8.9199           118.67       NO       
       PART-1-1.586        0.0529064          3.06432          93.2687       NO       
       PART-1-1.587        0.0217861          1.07433          152.623       NO       
       PART-1-1.588      0.000937723          2.46745          141.782       NO       
       PART-1-1.589        0.0212714          1.63963          140.006       NO       
       PART-1-1.590       0.00547998          2.10128          140.093       NO       
       PART-1-1.591       0.00547998          1.98192          141.913       NO       
       PART-1-1.592        0.0767843          4.78522          103.062       NO       
       PART-1-1.593        0.0186508         0.916631          159.137       NO       
       PART-1-1.595       0.00054133          6.08703           130.71       NO       
       PART-1-1.596        0.0339577          3.72217          116.644       NO       
       PART-1-1.597        0.0221202          1.83844          128.813       NO       
       PART-1-1.598        0.0152949          3.87794          95.5711       NO       
       PART-1-1.599        0.0403892            2.013          104.796       NO       
       PART-1-1.600        0.0868926          4.31204          100.355       NO       
       PART-1-1.601      0.000621885          8.33755          123.219       NO       
       PART-1-1.602       0.00497505          4.10917          126.256       NO       
       PART-1-1.603      0.000582598          5.55912          110.768       NO       
       PART-1-1.605        0.0365221          3.69159          104.853       NO       
       PART-1-1.606        0.0375513          3.56444          109.859       NO       
       PART-1-1.607        0.0535646          4.32988           112.47       NO       
       PART-1-1.608        0.0638807           4.9756          109.618       NO       
       PART-1-1.609        0.0649006          4.68207          106.792       NO       
       PART-1-1.610        0.0023707          4.97574          113.568       NO       
       PART-1-1.611        0.0210797          8.92032          118.671       NO       
       PART-1-1.612        0.0665288          2.95907          104.253       NO       
       PART-1-1.613       0.00781833          1.65654          151.433       NO       
       PART-1-1.614        0.0394544          2.16007          91.9026       NO       
       PART-1-1.615        0.0569302          3.06828          125.757       NO       
       PART-1-1.616        0.0605883          3.93292          99.5554       NO       
       PART-1-1.617        0.0376902          3.38723          114.624       NO       
       PART-1-1.618        0.0015652          2.63796          147.253       NO       
       PART-1-1.620         0.024285          3.26232          133.862       NO       
       PART-1-1.621        0.0346877          2.83099           127.89       NO       
       PART-1-1.622        0.0227205           2.9514          97.0734       NO       
       PART-1-1.624        0.0397398          2.16946          94.7427       NO       
       PART-1-1.625      0.000252788          2.89711          142.469       NO       
       PART-1-1.626        0.0594663          4.13361          111.861       NO       
       PART-1-1.627       0.00362384          4.42737          113.017       NO       
       PART-1-1.628        0.0630623          4.39707          108.518       NO       
       PART-1-1.629        0.0695391           3.9649          103.377       NO       
       PART-1-1.632        0.0282532          2.26528          126.183       NO       
       PART-1-1.633        0.0431438          2.57875          143.506       NO       
       PART-1-1.634        0.0716227          5.09849          93.8716       NO       
       PART-1-1.636        0.0533206          2.81509          120.457       NO       
       PART-1-1.637      0.000670628          6.37447          131.916       NO       
       PART-1-1.638         0.071139           5.0143          97.2042       NO       
       PART-1-1.639        0.0481757          2.74262          121.461       NO       
       PART-1-1.640        0.0250189          2.02575          123.068       NO       
       PART-1-1.641      0.000110104         0.779293          165.053       NO       
       PART-1-1.642        0.0244067          2.01347           127.48       NO       
       PART-1-1.643       0.00116566          3.11653          144.968       NO       
       PART-1-1.644        0.0713953          3.11919          100.939       NO       
       PART-1-1.645        0.0252748          1.26277          147.938       NO       
       PART-1-1.646      0.000110657          2.63174          150.043       NO       
       PART-1-1.647        0.0758622          3.50718          97.5433       NO       
       PART-1-1.648        0.0662695          2.98963          115.562       NO       
       PART-1-1.650      0.000635375          1.44127          161.854       NO       
       PART-1-1.651        0.0472003          3.19047           122.76       NO       
       PART-1-1.652        0.0109352          4.13608          137.837       NO       
       PART-1-1.653        0.0576038           3.0275           125.66       NO       
       PART-1-1.654        0.0176863          1.63936          154.092       NO       
       PART-1-1.655      0.000670628          4.10165          127.058       NO       
       PART-1-1.656        0.0371777          2.10506          94.3588       NO       
       PART-1-1.657       0.00280813          3.64546          136.601       NO       
       PART-1-1.658        0.0739527          4.94991          100.894       NO       
       PART-1-1.659       0.00312438          2.53167          149.002       NO       
       PART-1-1.660        0.0265293          2.94825          90.7029       NO       
       PART-1-1.661         0.001348          8.42255          129.865       NO       
       PART-1-1.662        0.0508375          2.95224          126.656       NO       
       PART-1-1.663        0.0343399          1.84897          119.259       NO       
       PART-1-1.665        0.0401918          2.47657          120.349       NO       
       PART-1-1.666        0.0250189           2.2347          121.317       NO       
       PART-1-1.667        0.0750927           4.6131          104.637       NO       
       PART-1-1.668      0.000136884          4.12595          139.499       NO       
       PART-1-1.669        0.0417656          2.49451          119.803       NO       
       PART-1-1.670        0.0427496          2.44514           122.21       NO       
       PART-1-1.671        0.0273663          7.12132          125.769       NO       
       PART-1-1.672        0.0299162          6.23703          130.998       NO       
       PART-1-1.673        0.0550975          2.99808          108.689       NO       
       PART-1-1.674        0.0212108          1.69809          141.999       NO       
       PART-1-1.675       0.00310574          3.09435          131.614       NO       
       PART-1-1.676        0.0148823          3.80413          94.0625       NO       
       PART-1-1.677        0.0651589          2.96201          115.014       NO       
       PART-1-1.678       0.00310574          2.86466          134.444       NO       
       PART-1-1.679        0.0599257          2.76564          121.899       NO       
       PART-1-1.680      0.000786286          9.24057          108.367       NO       
       PART-1-1.681        0.0335647          1.95393          120.956       NO       
       PART-1-1.683        0.0335647          1.86109          119.736       NO       
       PART-1-1.684        0.0545203           2.7845          123.413       NO       
       PART-1-1.685        0.0461376          2.76851           129.68       NO       
       PART-1-1.686        0.0575453          4.48728          104.436       NO       
       PART-1-1.687        0.0790662          5.10239          94.9062       NO       
       PART-1-1.688       0.00552048          2.75765          119.648       NO       
       PART-1-1.689        0.0520362          2.85697          128.525       NO       
       PART-1-1.690        0.0612245          4.50199          117.994       NO       
       PART-1-1.691        0.0267148          2.96459           91.729       NO       
       PART-1-1.692        0.0267148          2.71871          94.6702       NO       
       PART-1-1.693        0.0188754          7.65919           131.92       NO       
       PART-1-1.694        0.0023707          4.65368          118.222       NO       
       PART-1-1.695        0.0229251          2.86147          92.1124       NO       
       PART-1-1.696        0.0741733           3.5603          97.2623       NO       
       PART-1-1.697        0.0313965           1.9581           120.14       NO       
       PART-1-1.698        0.0700015           3.1243          101.581       NO       
       PART-1-1.700        0.0017562          1.92673          153.213       NO       
       PART-1-1.701       0.00337532          5.77838          103.305       NO       
       PART-1-1.703        0.0313965          2.06161          121.488       NO       
       PART-1-1.704         0.075311          3.45668          98.3451       NO       
       PART-1-1.705        0.0493268          2.57625          120.108       NO       
       PART-1-1.706        0.0219746          1.21824          148.794       NO       
       PART-1-1.707        0.0183044          1.16217          149.878       NO       
       PART-1-1.708         0.014871         0.693098          165.454       NO       
       PART-1-1.709        0.0245183          2.83542          109.552       NO       
       PART-1-1.710        0.0399694          2.45759          124.092       NO       
       PART-1-1.711        0.0422673          3.30072          118.021       NO       
       PART-1-1.712        0.0238771          2.71751          116.004       NO       
       PART-1-1.713        0.0580057          4.40983          112.163       NO       
       PART-1-1.714        0.0336102          3.68911          131.139       NO       
       PART-1-1.715        0.0369837          2.51115          119.487       NO       
       PART-1-1.716        0.0242115          8.03343          119.948       NO       
       PART-1-1.717        0.0672674          3.29478            95.04       NO       
       PART-1-1.718        0.0210797          8.92032          118.671       NO       
       PART-1-1.720       0.00441659          2.19364          140.337       NO       
       PART-1-1.721       0.00441659          2.34111          138.269       NO       
       PART-1-1.722      0.000530332          3.00419          148.378       NO       
       PART-1-1.723        0.0241912          3.83651          126.419       NO       
       PART-1-1.724        0.0578281          2.80853          114.023       NO       
       PART-1-1.725        0.0283741           2.3249          114.636       NO       
       PART-1-1.726       0.00868865          1.80349           141.55       NO       
       PART-1-1.728        0.0294763          2.17087          117.221       NO       
       PART-1-1.729        0.0150447             2.98          91.2159       NO       
       PART-1-1.730       0.00868865          1.72159          143.049       NO       
       PART-1-1.732        0.0182717           9.6746          119.741       NO       
       PART-1-1.733        0.0666743           3.2546          94.9317       NO       
       PART-1-1.734        0.0159393          10.2037          120.014       NO       
       PART-1-1.735       0.00125785          1.52144          158.636       NO       
       PART-1-1.736        0.0237088          3.04663          91.2074       NO       
       PART-1-1.737        0.0367439          2.24188           129.17       NO       
       PART-1-1.738        0.0288984          2.26573          115.234       NO       
       PART-1-1.739        0.0717976          3.14579          109.341       NO       
       PART-1-1.740      0.000153253          1.40661          157.609       NO       
       PART-1-1.741        0.0499747           2.6576          116.938       NO       
       PART-1-1.743        0.0481861          3.42467          116.439       NO       
       PART-1-1.744        0.0012809          6.58583          137.771       NO       
       PART-1-1.745        0.0750219          4.09709          104.895       NO       
       PART-1-1.746        0.0453175          2.68161          130.932       NO       
       PART-1-1.747        0.0269167          2.91766          98.5979       NO       
       PART-1-1.748        0.0391932          5.46855           135.84       NO       
       PART-1-1.749       0.00620994          1.06159          163.563       NO       
       PART-1-1.751       0.00118507          27.9453          163.278       NO       
       PART-1-1.752      0.000793217          5.15709          114.543       NO       
       PART-1-1.753        0.0240345          1.54113          138.925       NO       
       PART-1-1.754        0.0638807           4.9756          109.618       NO       
       PART-1-1.755        0.0140843          10.4133          119.284       NO       
       PART-1-1.758        0.0269167          2.70539          96.5082       NO       
       PART-1-1.759        0.0377695          2.80272          90.9284       NO       
       PART-1-1.760        0.0398377          2.16495          98.3072       NO       
       PART-1-1.762        0.0377695            2.154          91.5748       NO       
       PART-1-1.763        0.0374782          2.77633          90.4521       NO       
       PART-1-1.764        0.0374782          2.13222          93.1149       NO       
       PART-1-1.765        0.0338435          2.84646          120.263       NO       
       PART-1-1.766        0.0515342          3.01833          95.4413       NO       
       PART-1-1.768        0.0276833          1.29272          147.349       NO       
       PART-1-1.769        0.0382809          2.56286          106.637       NO       
       PART-1-1.770         0.023272           2.5184          101.317       NO       
       PART-1-1.771        0.0252161          3.54045          123.386       NO       
       PART-1-1.772        0.0671811          3.36088            106.8       NO       
       PART-1-1.773        0.0260246          2.26189          139.421       NO       
       PART-1-1.774        0.0202316          1.24699           148.04       NO       
       PART-1-1.775         0.047245          2.63538          106.411       NO       
       PART-1-1.777        0.0318913          1.63696          151.766       NO       
       PART-1-1.778      0.000153253          3.16786          154.224       NO       
       PART-1-1.779       0.00686564           4.7234          137.962       NO       
       PART-1-1.780        0.0509181          2.96393          110.612       NO       
       PART-1-1.781        0.0502357          2.56624          113.934       NO       
       PART-1-1.782        0.0565664          3.69629          103.917       NO       
       PART-1-1.783        0.0067661         0.789005          166.652       NO       
       PART-1-1.784        0.0436567          3.90832          118.207       NO       
       PART-1-1.785        0.0620872          5.41995          116.316       NO       
       PART-1-1.787        0.0339874          2.33503          137.406       NO       
       PART-1-1.788        0.0148823          2.88678          97.6366       NO       
       PART-1-1.789        0.0245183          2.51314          107.634       NO       
       PART-1-1.790        0.0276438          2.40705          138.151       NO       
       PART-1-1.791        0.0270289          1.65456          151.334       NO       
       PART-1-1.792        0.0765409          4.74609          101.059       NO       
       PART-1-1.794        0.0756858          4.79866          99.1221       NO       
       PART-1-1.796        0.0650545          2.94862          101.181       NO       
       PART-1-1.798        0.0596209          5.16803          112.132       NO       
       PART-1-1.800        0.0015652          1.74252          145.774       NO       
       PART-1-1.801      0.000582598          8.06027          118.139       NO       
       PART-1-1.802        0.0287903          2.14112          128.775       NO       
       PART-1-1.804        0.0723604           4.7655          101.392       NO       
       PART-1-1.805      0.000854246          4.53707          138.163       NO       
       PART-1-1.806      0.000589396           4.5878          124.204       NO       
       PART-1-1.807        0.0368175          3.17557          118.969       NO       
       PART-1-1.809        0.0287903          1.81053          127.587       NO       
       PART-1-1.810        0.0212083         0.911978          156.624       NO       
       PART-1-1.811      0.000170778          11.1429          115.245       NO       
       PART-1-1.812        0.0349632          2.94924          122.897       NO       
       PART-1-1.815        0.0152954          3.54823           102.02       NO       
       PART-1-1.817       0.00351891          1.53796          154.965       NO       
       PART-1-1.818        0.0024862          4.40628          131.158       NO       
       PART-1-1.819        0.0368133          3.14545          120.742       NO       
       PART-1-1.820        0.0416159           2.2157          126.253       NO       
       PART-1-1.821        0.0062873          1.27301          147.796       NO       
       PART-1-1.822        0.0241372          3.48685          110.168       NO       
       PART-1-1.823        0.0591056          3.40206          115.109       NO       
       PART-1-1.824        0.0307236          2.01525          119.664       NO       
       PART-1-1.825         0.075573          3.56705          97.0642       NO       
       PART-1-1.826        0.0268323          2.53531          142.932       NO       
       PART-1-1.827        0.0508209          3.29496          105.478       NO       
       PART-1-1.828        0.0506464          4.26815          115.701       NO       
       PART-1-1.829        0.0419689          4.05127          119.335       NO       
       PART-1-1.830        0.0446693          3.07719          130.708       NO       
       PART-1-1.831      2.51768E-05          1.81318          177.259       NO       
       PART-1-1.832      0.000323823          10.4736          117.576       NO       
       PART-1-1.833        0.0528595          4.13531          118.401       NO       
       PART-1-1.834        0.0364067          2.86367          141.473       NO       
       PART-1-1.836       0.00621328         0.669113          167.012       NO       
       PART-1-1.837        0.0243233          3.31305          134.496       NO       
       PART-1-1.838      0.000174799          3.07038          144.163       NO       
       PART-1-1.839        0.0208855          3.56831          146.259       NO       
       PART-1-1.840      0.000898404          2.33686          152.288       NO       
       PART-1-1.841        0.0202681          4.56707          137.069       NO       
       PART-1-1.842        0.0392796          2.25372          126.941       NO       
       PART-1-1.843       0.00361966          4.71922          133.074       NO       
       PART-1-1.844       0.00133928          1.45051          151.991       NO       
       PART-1-1.846        0.0251691          2.12591          117.952       NO       
       PART-1-1.847        0.0322004          2.71786          126.385       NO       
       PART-1-1.849        0.0024862          2.77258          129.656       NO       
       PART-1-1.850        0.0660133          2.90656          106.751       NO       
       PART-1-1.851      0.000158135          9.46244          127.101       NO       
       PART-1-1.852         0.027437          2.73763          134.188       NO       
       PART-1-1.853        0.0289038           1.7083          130.446       NO       
       PART-1-1.854        0.0203176         0.905561          157.017       NO       
       PART-1-1.855        0.0184772           3.5388          97.3664       NO       
       PART-1-1.856        0.0286126          2.28113          146.163       NO       
       PART-1-1.857        0.0640649          3.14585          96.5709       NO       
       PART-1-1.858        0.0152954           2.7645          99.6986       NO       
       PART-1-1.859        0.0883308          4.82343          103.858       NO       
       PART-1-1.860       0.00032256          4.39129          129.068       NO       
       PART-1-1.861         0.035216          3.82351          106.518       NO       
       PART-1-1.862        0.0401383          2.92841           131.94       NO       
       PART-1-1.863         0.015923           2.3832          112.645       NO       
       PART-1-1.864      0.000218811          6.20873          142.242       NO       
       PART-1-1.865        0.0659052          3.21589          94.0552       NO       
       PART-1-1.866        0.0638807           4.9756          109.618       NO       
       PART-1-1.867        0.0274328          1.98673          122.397       NO       
       PART-1-1.868        0.0381767          2.01806          96.3524       NO       
       PART-1-1.869        0.0491665          2.83282          93.1007       NO       
       PART-1-1.871         0.056042          2.71005          111.067       NO       
       PART-1-1.872        0.0273685          7.12129          125.766       NO       
       PART-1-1.873        0.0320029          3.61921          124.719       NO       
       PART-1-1.874       0.00321692          5.98635          123.487       NO       
       PART-1-1.875        0.0398108          2.13741           103.27       NO       
       PART-1-1.876       0.00298951          1.71258          155.912       NO       
       PART-1-1.877        0.0263365          2.87088          97.9924       NO       
       PART-1-1.878      0.000158135          5.04675          132.717       NO       
       PART-1-1.879        0.0532769          2.98716          109.677       NO       
       PART-1-1.880        0.0602785          5.23898          125.707       NO       
       PART-1-1.881        0.0396082          3.35836          166.177       NO       
       PART-1-1.884      0.000600854          6.11614          101.369       NO       
       PART-1-1.885        0.0610612          2.81972          116.179       NO       
       PART-1-1.886        0.0872653          4.76471          107.173       NO       
       PART-1-1.887        0.0491344          2.82636          92.7911       NO       
       PART-1-1.888       0.00119637          5.33464          135.486       NO       
       PART-1-1.889        0.0356394          4.67581          124.891       NO       
       PART-1-1.891       0.00280813          2.32576           134.83       NO       
       PART-1-1.892        0.0030852          2.10582          152.224       NO       
       PART-1-1.893        0.0195508          3.34316          105.909       NO       
       PART-1-1.895      0.000735953          6.97533          124.134       NO       
       PART-1-1.896      0.000155521          1.11964          160.338       NO       
       PART-1-1.897      0.000136884          5.33103          144.044       NO       
       PART-1-1.898        0.0137204           3.2086          144.906       NO       
       PART-1-1.899        0.0695669          3.02422          101.916       NO       
       PART-1-1.900       0.00118846          4.98237          144.347       NO       
       PART-1-1.901        0.0359148           2.9424          118.605       NO       
       PART-1-1.902       0.00566695          21.9122          154.931       NO       
       PART-1-1.903       0.00203803           7.0458           107.67       NO       
       PART-1-1.904        0.0184772           2.7556          101.129       NO       
       PART-1-1.905       0.00247309          1.68253          146.374       NO       
       PART-1-1.906        0.0216409          2.30371          138.694       NO       
       PART-1-1.907        0.0512396          3.36347           103.38       NO       
       PART-1-1.908        0.0561269          2.77849          118.097       NO       
       PART-1-1.909      0.000172652          5.94268          101.929       NO       
       PART-1-1.910       0.00032256          9.50471          123.676       NO       
       PART-1-1.911      0.000667942          1.89695          154.388       NO       
       PART-1-1.912        0.0307456          2.82871          138.216       NO       
       PART-1-1.913      0.000595124          5.42464          122.277       NO       
       PART-1-1.914      0.000825973           4.0183           140.61       NO       
       PART-1-1.915      0.000603749          6.08488          100.397       NO       
       PART-1-1.916       0.00204637          6.47054          114.571       NO       
       PART-1-1.917       0.00553651          2.04776          134.649       NO       
       PART-1-1.918        0.0045682          3.59181          139.011       NO       
       PART-1-1.920        0.0672187          3.27446           93.748       NO       
       PART-1-1.921      0.000126804          1.92203          161.105       NO       
       PART-1-1.923        0.0341217          2.93113          133.375       NO       
       PART-1-1.924      0.000204693          1.61811          154.534       NO       
       PART-1-1.925        0.0444734          2.89339          130.424       NO       
       PART-1-1.926        0.0111608          2.24575          150.666       NO       
       PART-1-1.927      0.000603487          6.58918          107.959       NO       
       PART-1-1.928      0.000110657          3.41809          152.514       NO       
       PART-1-1.930      0.000544685          1.30104          154.745       NO       
       PART-1-1.931         0.016615          1.88641          146.357       NO       
       PART-1-1.932         0.043468          2.68476           132.47       NO       
       PART-1-1.936        0.0128433          5.05904          137.001       NO       
       PART-1-1.937        0.0263832          2.01028          122.124       NO       
       PART-1-1.938        0.0498444          3.39825          120.387       NO       
       PART-1-1.942      0.000630235          24.9966          164.611       NO       
       PART-1-1.943      0.000176247           5.4789          127.465       NO       
       PART-1-1.944        0.0549597          4.24298          115.554       NO       
       PART-1-1.945        0.0153252          8.52926          113.935       NO       
       PART-1-1.946      0.000315439          1.78211          153.555       NO       
[...]
       1155     -4.0022534E-02
       1161     -2.8053052E-02
       1176     -6.4053712E-02
       1196     -6.5449769E-02
       1229     -4.9968991E-02
       1234     -1.6117436E-01
       1238     -4.6856663E-02
       1239     -2.4401767E-01
       1245     -6.7214252E-02
       1249     -5.0406199E-02
       1266     -3.4611563E-02
       1271     -6.7700213E-02
       1289     -3.8148362E-02
       1303     -6.0632057E-02
       1305     -1.1255757E-01
       1306     -1.1073382E-01
       1311     -3.9751080E-02
       1336     -2.7279558E-02
       1339     -3.7988308E-02
       1344     -3.7823545E-02
       1345     -6.0260550E-02
       1350     -3.6578114E-02
       1355     -4.2943447E-02
       1358     -4.7257653E-02
       1374     -1.3532702E-01
       1375     -1.7603944E-01
       1386     -4.9909066E-02
       1393     -5.4389721E-02
       1400     -3.7867373E-02
       1403     -7.6689940E-02
       1404     -6.6387387E-02
       1413     -8.4527007E-02
       1420     -8.5368206E-02
       1424     -4.6181419E-02
       1425     -8.0034834E-02
       1432     -7.9884578E-02
       1435     -3.7547094E-02
       1436     -5.2251662E-02
       1440     -3.0036361E-02
       1452     -1.1886666E-01
       1455     -1.6392814E-01
       1459     -5.1132012E-02
       1460     -9.0849960E-02
       1497     -5.6458208E-02
       1504     -1.5741923E-01
       1506     -2.0748530E-02
       1508     -3.8930496E-02
       1521     -4.7072564E-02
       1522     -8.5127616E-02
       1524     -7.9669012E-02
       1525     -1.6262200E-01
       1527     -1.1417361E-01
       1528     -4.5635100E-02
       1540     -1.8374574E-01
       1544     -6.0650013E-02
       1545     -1.3754336E-01
       1551     -5.6272543E-02
       1569     -6.7231006E-02
       1588     -1.4325870E-01
       1590     -9.9685125E-02
       1594     -6.1279182E-02
       1595     -6.1839694E-02
       1598     -5.1506559E-02
       1610     -6.1303443E-02
       1612     -1.8127460E-01
       1620     -5.8771670E-02
       1622     -1.7077767E-01
       1623     -5.4467386E-02
       1630     -3.8232889E-02
       1633     -2.2072677E-01
       1656     -4.2797654E-02
       1657     -8.2745539E-02
       1670     -3.0408671E-02
       1675     -3.0217571E-02
       1776     -4.4295562E-02
       1781     -4.0178818E-02
       1789     -4.1989806E-02
       1791     -6.7989719E-02
       1792     -7.1186273E-02
       1798     -2.8392966E-01
       1801     -4.1104231E-02
       1802     -4.7716469E-02
       1805     -9.8882082E-02
       1806     -4.5280637E-02
       1807     -1.0565869E-01
       1808      3.9546356E-02
       1822     -5.5948246E-02
       1834     -9.9745521E-02
       1838     -5.0588284E-02
       1839     -9.0993363E-02
       1844     -6.0525523E-02
       1866     -1.0483040E-02
       1867     -4.0251506E-02
       1868     -3.5293117E-02
       1878     -6.4204469E-02
       1891     -3.7236192E-02
       1896     -9.0943305E-02
       1897     -4.0628811E-02
       1916     -2.7221921E-02
       1939     -4.9766223E-03
       1943     -3.0128001E-02
       1947     -3.9177809E-02
       1948     -2.2124594E-01
       1949     -3.1981370E-02
       1959     -3.3474364E-02
       1972     -4.8230956E-02
       1989     -1.7255961E-01
       1993     -6.0014959E-02
       1994     -1.3314806E-01
       2000     -5.7113556E-02
       2001     -1.7369826E-01
       2018     -1.2781285E-02
       2027     -3.0702132E-02
       2042     -5.4354514E-02
       2061     -2.8465111E-02
       2065     -3.7807023E-02
       2066     -8.1486850E-02
       2075     -3.7819369E-02
       2083     -4.9449840E-02
       2086     -4.6960739E-02
       2090     -3.7100352E-02
       2095     -3.9903064E-02
       2097     -6.0474415E-02
       2113     -5.2453361E-02
       2114     -4.0822746E-02
       2116     -9.8079854E-02
       2119     -5.1231010E-02
       2122     -1.3388365E-01
       2123     -1.0232875E-01
       2125     -5.2380710E-02
       2130     -4.7660744E-02
       2132     -3.0702455E-02
       2138     -8.9428261E-02
       2139     -7.1147580E-02
       2147     -3.6664310E-02
       2166     -3.8094185E-02
       2168     -9.3816753E-02
       2171     -6.2906071E-02
       2172     -4.2171671E-02
       2175     -3.1976086E-02
       2182     -4.7477607E-02
       2185     -3.9165112E-02
       2193     -5.0639967E-02
       2195     -9.7016311E-02
       2203     -4.2643256E-02
       2210     -1.0330265E-01
       2211     -4.9232003E-02
       2215     -7.6469594E-02
       2217     -5.0531990E-02
       2219     -2.9299217E-02
       2221     -6.6665134E-02
       2223      1.1691922E-02
       2230     -3.6344925E-02
       2231     -2.5812068E-02
       2246     -4.4661032E-02
       2247     -1.3366666E-01
       2252     -6.3053076E-02
       2255     -5.8057589E-02
       2256     -6.3575986E-02
       2257     -2.3247550E-02
       2260     -1.8439738E-01
       2263     -1.4028414E-01
       2266     -1.1800414E-01
       2284     -3.4677174E-02
       2286     -4.8893700E-02
       2288     -1.2636224E-01
       2289     -1.2522459E-01
       2290     -1.4998053E-01
       2294     -1.8115523E-01
       2295     -6.2656698E-02
       2298     -1.1597494E-01
       2299     -9.9514565E-02
       2303     -6.6424181E-02
       2307     -3.0716339E-01
       2310     -1.4021099E-01
       2313     -1.7923879E-01
       2315     -3.8790490E-02
       2318     -1.2523715E-01
       2322     -1.5092882E-01
       2323     -5.6157493E-02
       2327     -1.6696572E-01
       2331     -5.4674955E-02
       2332     -9.9983828E-02
       2335     -5.7081270E-02
       2336     -1.2771693E-01
       2338     -4.2724701E-02
       2340     -5.5782985E-02
       2344     -2.8421186E-02
       2348     -3.7279082E-02
       2349     -8.4131345E-02
       2350     -1.7414406E-01
       2353     -5.7741388E-02
       2354     -1.2388508E-01
       2355     -4.3066725E-02
       2363     -5.6824287E-02
       2370     -1.3387519E-01
       2372     -1.3215498E-01
       2373     -1.6384627E-01
       2374     -6.2701107E-02
       2375     -3.1290516E-02
       2379     -4.2023272E-02
       2380     -2.9369199E-02
       2381     -5.7916774E-02
       2387     -5.2993607E-02
       2403     -4.7012291E-02
       2410     -5.0827569E-02
       2414     -2.7800881E-02
       2416     -3.8687900E-02
       2417     -1.6690697E-02
       2421     -3.0470584E-02
       2428     -6.0972483E-02
       2430     -1.1461665E-01
       2431     -1.7151410E-01
       2437     -3.3714838E-02
       2438     -1.1525577E-01
       2439     -5.5846390E-02
       2440     -2.7342705E-02
       2441     -2.8462665E-02
       2445     -2.7670348E-02
       2448     -2.7960204E-02
       2449     -4.3610960E-02
       2458     -5.2993997E-02
       2459     -3.4589337E-02
       2471     -3.1828634E-02
       2474     -4.2101732E-02
       2476     -2.1131809E-02
       2477     -2.9845821E-02
       2479     -3.6346519E-02
       2483     -9.4376756E-02
       2486     -2.5821428E-02
       2487     -2.6378548E-02
       2488     -3.3077044E-02
       2489     -4.2026095E-02
       2496     -4.7261799E-02
       2507     -3.0776501E-02
       2510     -6.1660139E-02
       2523     -7.2268484E-03
       2524     -2.8418975E-02
       2527     -5.4650283E-02
       2529     -3.4301341E-02
       2532     -4.1895495E-02
       2535     -7.9336784E-02
       2539     -1.6099140E-01
       2540     -1.8536369E-01
       2542     -1.0549826E-01
       2546     -1.7170407E-01
       2554     -1.0442105E-01
       2562     -4.8325558E-02
       2573     -3.0391362E-02
       2575     -3.9425334E-02
       2580     -5.7773392E-02
       2582     -5.5132335E-02
       2595     -5.1823433E-02
       2604     -1.0620961E-01
       2605     -6.0328475E-02
       2608     -1.1078082E-01
       2610     -4.6316067E-02
       2615     -6.4523620E-02
       2617     -1.3768076E-01
       2618     -8.4546072E-02
       2620     -5.2492677E-02
       2623     -1.7992365E-01
       2624     -6.1853852E-02
       2633     -8.4917663E-02
       2637     -6.6316734E-02
       2640     -6.0933955E-02
       2641     -2.1495653E-01
       2642     -5.1814736E-02
       2643     -3.9957395E-02
       2653     -1.1626798E-01
       2655     -4.5751618E-02
       2656     -5.6990054E-02
       2658     -1.4110853E-01
       2659     -1.8876785E-01
       2669     -4.6241222E-02
       2679     -5.0524873E-02
       2683     -3.2522613E-02
       2691     -3.7585297E-02
       2692     -2.7538567E-02
       2694      1.6675089E-02
       2701     -3.5837432E-02
       2705     -1.5455937E-02
       2709     -3.4590813E-02
       2710     -8.1616000E-02
       2712     -5.2782454E-02
       2722     -1.8113644E-01
       2724     -1.3202641E-01
       2725     -6.0544923E-02
       2729     -3.5517627E-02
       2732     -3.7648317E-02
       2735     -3.9933997E-02
       2741     -5.0454190E-02
       2742     -4.6561824E-02
       2745     -4.9441082E-02
       2749     -1.0473946E-01
       2752     -4.9668306E-02
       2756     -1.5156040E-01
       2760     -4.7645080E-02
       2761     -9.5693052E-02
       2762     -2.1616850E-02
       2764     -8.5447853E-02
       2767     -3.8645060E-02
       2771     -3.8968837E-02
       2774     -9.0665219E-02
       2775     -8.7679500E-02
       2778     -3.2416394E-02
       2782     -3.4531732E-02
       2787     -3.3036205E-02
       2795     -3.9927066E-02
       2808     -5.3766073E-02
       2825     -1.3186542E-01
       2827     -1.2982132E-01
       2828     -4.9183936E-02
       2835     -4.3102382E-02
       2840     -3.7803830E-02
       2843     -4.5134190E-02
       2844     -6.8811062E-02
       2846     -2.7231983E-02
       2848     -5.1816503E-02
       2851     -1.2539747E-01
       2853     -7.3858602E-02
       2854     -5.6138655E-02
       2866     -5.2660699E-02
       2869     -5.5927852E-02
       2876     -5.9998234E-02
       2893     -4.2010726E-02
       2895     -3.5680297E-02
       2897     -9.4445703E-02
       2903     -3.0631758E-02
       2914     -1.0817846E-01
       2918     -5.5368457E-02
       2921     -7.4570941E-02
       2923     -3.8612329E-02
       2929     -6.0738663E-02
       2933     -3.5578795E-02
       2937     -4.1124437E-02
       2939     -3.2031931E-02
       2942     -9.3526538E-03
       2943     -2.1748651E-02
       2944     -3.5514826E-02
       2945     -7.6515522E-02
       2946     -1.1873498E-01
       2947     -1.5065445E-01
       2956      1.9108481E-02
       2958     -2.6904127E-02
       2964     -3.9086252E-02
       2966     -3.4037177E-02
       2967     -7.2012417E-02
       2968     -2.7320232E-02
       2974     -5.7292882E-02
       2979     -1.4233975E-01
       2981     -5.8572706E-02
       2983     -1.1172858E-01
       2986     -1.7403242E-01
       2997     -2.9982275E-02
       2999     -1.1092481E-01
       3002     -1.4550488E-01
       3005     -2.5308955E-02
       3038     -5.6267526E-02
       3041     -3.4225463E-02
       3057     -1.3541326E-01
       3059     -5.4917091E-02
       3063     -4.3432440E-02
       3077     -3.4465054E-02
       3078     -2.8755498E-02
       3079     -1.4991692E-01
       3081     -5.3023405E-02
       3090     -5.4656126E-02
       3095     -5.4479358E-02
       3097     -1.3656295E-01
       3106     -5.5174664E-02
       3107     -1.3878350E-01
       3110     -5.2604926E-02
       3112     -1.2774499E-01
       3114     -1.4187246E-01
       3119     -4.4633381E-02
       3120     -2.9181963E-02
       3122     -2.2583284E-02
       3123     -3.7102603E-02
       3131     -2.4492377E-02
       3137     -3.7637628E-02
       3141     -5.7854918E-02
       3145     -6.7906496E-02
       3146     -1.4529581E-01
       3147     -6.1139200E-02
       3152     -3.9297149E-02
       3155     -5.3742069E-02
       3157     -1.1808792E-01
       3158     -1.0809447E-01
       3161     -4.0668803E-02
       3166     -3.0903643E-02
       3172     -6.3058062E-02
       3174     -4.6218814E-02
       3175     -6.0140488E-02
       3179     -7.5854702E-02
       3183     -1.5167984E-01
       3185     -3.8196514E-02
       3186     -4.0236482E-02
       3187     -8.8449777E-02
       3189     -3.1957922E-02
       3191     -3.2319478E-02
       3194     -1.3318715E-01
       3196     -6.2967318E-02
       3197     -4.8454617E-02
       3201     -5.2181141E-02
       3202     -3.2430375E-02
       3208     -7.3673395E-02
       3210     -6.5130909E-02
       3223     -6.5867261E-02
       3228     -5.4583130E-02
       3231     -5.1590657E-02
       3232     -4.1200756E-02
       3241     -2.2447585E-01
       3242     -1.2056649E-01
       3244     -4.4530079E-02
       3255     -3.8438611E-02
       3258     -1.1206906E-01
       3259     -6.3989289E-02
       3260     -4.5675665E-02
       3261     -1.3120446E-01
       3262     -1.4826778E-01
       3263     -1.8819839E-01
       3282     -9.7764485E-02
       3284     -5.9773806E-02
       3285     -4.6452544E-02
       3286     -1.9439589E-01
       3288     -6.6758730E-02
       3294     -1.7529387E-01
       3296     -1.8077990E-01
       3300     -3.8339889E-02
       3303     -1.2723561E-01
       3304     -5.6899064E-02
       3307     -5.3775687E-02
       3312     -3.5495766E-02
       3316     -2.5905844E-02
       3319     -4.5410620E-02
       3320     -3.0129015E-02
       3326     -2.9365166E-02
       3327     -8.6402634E-02
       3330     -3.3468369E-02
       3339     -5.8271141E-02
       3342     -8.9597608E-02
       3345     -2.7501668E-02
       3356     -7.4836970E-02
       3357     -7.3418390E-02
       3358     -3.6391527E-02
       3362     -3.8108914E-02
       3364     -4.2217777E-02
       3365     -2.5723619E-02
       3366     -4.5135313E-02
       3367     -5.9377479E-02
       3368     -5.5680836E-02
       3369     -1.1105045E-01
       3380     -4.7248926E-02
       3391     -1.4731105E-02
       3393     -3.4177701E-02
       3394     -7.5926756E-02
       3396     -3.6367564E-02
       3398     -3.2473402E-02
       3407     -9.7800335E-02
       3409     -6.0868729E-02
       3410     -3.0592800E-02
       3411     -1.1695863E-01
       3412     -5.1826886E-02
       3413     -1.4753110E-02
       3422     -2.5413282E-02
       3423     -1.2188902E-01
       3424     -5.5173292E-02
       3431     -3.3402580E-02
       3433     -7.3050766E-02
       3434     -1.0652273E-02
       3435     -7.0463580E-02
       3437     -7.6031841E-03
       3438     -3.2297562E-02
       3452     -5.0998363E-02
       3463     -3.6026152E-02
       3464     -4.8643513E-02
       3465     -1.7644821E-01
       3468     -6.1960368E-02
       3471     -1.2287211E-01
       3473     -5.3499489E-02
       3500     -4.3583815E-02
       3518     -2.5702980E-02
       3519     -4.2593715E-02
       3549     -1.0723161E-01
       3550     -3.2961489E-02
       3553     -4.9514347E-02
       3554     -1.0800085E-01
       3556     -5.0936480E-02
       3557     -1.0520862E-01
       3563     -1.1572366E-01
       3564     -5.2041104E-02
       3565     -5.2896627E-02
       3567     -6.4156295E-02
       3569     -3.3592553E-02
       3574     -1.3875026E-01
       3575     -7.8677507E-02
       3576     -1.3488455E-01
       3581     -5.8193929E-02
       3583     -4.9993558E-02
       3592     -8.0361400E-02
       3598     -1.0312197E-01
       3599     -4.8495174E-02
       3601     -4.7203516E-02
       3607     -2.5632343E-02
       3614     -3.3602968E-02
       3620     -5.6272381E-02
       3625     -3.5705682E-02
       3627     -5.8586349E-02
       3630     -7.0064373E-02
       3632     -5.3940250E-03
       3633     -3.2196717E-02
       3639     -3.2114737E-02
       3641     -7.0311033E-02
       3642     -5.2162962E-03
       3647     -2.4425393E-01
       3653     -3.3384420E-02
       3657     -3.4137638E-02
       3660     -7.4681643E-02
       3661     -8.4713679E-03
       3664     -3.2947838E-02
       3665     -7.3399831E-02
       3671     -7.1196837E-02
       3680     -8.8749124E-02
       3682     -3.8077244E-02
       3692     -2.3552504E-02
       3696     -4.8758058E-02
       3704     -8.7821057E-02
       3705     -2.0627576E-02
       3712     -1.5823065E-01
       3713     -5.1978958E-02
       3715     -6.8148829E-02
       3716     -4.5127662E-02
       3719     -6.0903159E-02
       3720     -2.9819527E-01
       3722     -1.7972790E-01
       3724     -1.4871040E-01
       3730     -3.8408563E-02
       3732     -1.3907030E-01
       3760     -5.6785147E-02
       3761     -1.5951417E-01
       3783     -1.4285130E-01
       3786     -1.3780257E-01
       3788     -4.9983739E-02
       3803     -7.5384509E-02
       3810     -3.4208351E-02
       3813     -1.1280920E-01
       3823     -3.1905174E-02
       3824     -7.3795016E-02
       3825     -4.4532837E-02
       3837     -2.0353000E-01
       3842     -8.1712657E-02
       3843     -4.8109460E-02
       3848     -4.0740803E-02
       3862     -1.6705709E-02
       3863     -3.8496612E-02
       3867     -6.2669035E-03
       3868     -3.1102591E-02
       3874     -3.0165148E-02
       3875     -7.0920850E-02
       3877     -5.4007702E-02
       3882     -4.1638937E-02
       3892     -3.7785552E-02
       3893     -3.4159145E-02
       3894     -1.0744955E-01
       3895     -5.1413285E-02
       3899     -3.2074261E-02
       3900     -3.8171350E-02
       3903     -4.3987898E-02
       3904     -4.8869920E-02
       3906     -3.2027615E-02
       3919     -4.8149728E-02
       3923     -1.7533780E-02
       3926     -7.7974124E-02
       3927     -8.7463365E-02
       3931     -6.9262739E-02
       3932     -3.8547834E-02
       3935     -3.0067936E-02
       3937     -7.5813282E-02
       3938     -1.1615388E-02
       3947     -3.6563654E-02
       3951     -1.3870821E-01
       3952     -5.5522213E-02
       3953     -5.3680355E-02
       3958     -4.5063472E-02
       3959     -3.1041446E-02
       3967     -6.9012393E-02
       3969     -3.4596849E-02
       3985     -2.5440289E-02
       4001     -5.5290188E-02
       4003     -3.7336411E-02
       4005     -4.0151033E-02
       4025     -1.2108235E-01
       4030     -1.2840441E-01
       4041     -5.4602430E-02
       4057     -3.9166712E-02
       4058     -5.3694968E-02
       4059     -9.4310749E-02
       4060     -1.8651489E-01
       4069     -4.1859522E-02
       4070     -5.3385341E-02
       4082     -8.0944342E-02
       4088     -1.0454114E-01
       4090     -6.4635593E-02
       4105     -4.5736993E-02
       4106     -1.0116560E-01
       4109     -4.5540028E-02
       4110     -1.3561567E-01
       4111     -7.3653116E-02
       4112     -3.2650908E-02
       4114     -3.7917404E-02
       4121     -7.6379786E-02
       4133     -1.5544506E-02
       4134     -9.1305535E-02
       4135     -4.5789837E-02
       4142     -5.2848270E-02
       4143     -1.1795269E-01
       4145     -2.9020910E-02
       4153     -6.5889032E-02
       4159     -3.5056033E-02
       4164     -3.7826324E-02
       4193     -1.5484423E-02
       4195     -1.4124633E-01
       4211     -6.8321437E-02

 MAXIMUM         0.1161    
 AT NODE               656

 MINIMUM        -0.3072    
 AT NODE              2307


          THE ANALYSIS HAS BEEN COMPLETED



                              ANALYSIS COMPLETE
                              WITH      3 WARNING MESSAGES ON THE DAT FILE
                              AND       2 WARNING MESSAGES ON THE MSG FILE
                                        1 WARNINGS ARE FOR NUMERICAL PROBLEMS



     JOB TIME SUMMARY
       USER TIME (SEC)      =   3.9000    
       SYSTEM TIME (SEC)    =   1.3000    
       TOTAL CPU TIME (SEC) =   5.2000    
       WALLCLOCK TIME (SEC) =          2
