1

   Abaqus 2021                                  Date 18-Jul-2023   Time 13:39:28
   For use by UNIVERSITY OF MICHIGAN under license from Dassault Systemes or its subsidiary.



                         The Abaqus Software is a product of:

                           Dassault Systemes SIMULIA Corp.
                           1301 Atwood Avenue, Suite 101W
                              Johnston, RI 02919, USA
 


                   The Abaqus Software is available only under license
                   from Dassault Systemes or its subsidiary and may be
                   used or reproduced only in accordance with the terms
                   of such license.
 
                          On machine ME-ESTRADALAB04 
                          you are authorized to run
                          Abaqus/Standard until 31-Jul-2024

                          Your site id is: 200000000004058 


 
                    For assistance or any other information you may
                    obtain contact information for your local office
                    from the world wide web at:

                      http://www.3ds.com/products/simulia/locations/

 
                * * * * * * * * * * * * * * * * * * * * * * * * * * * * * * 
                *                                                         * 
                *                   *****************                     * 
                *                   *  N O T I C E  *                     * 
                *                   *****************                     * 
                *                                                         * 
                *                                                         * 
                *                       Abaqus 2021                       * 
                *                                                         * 
                *          BUILD ID: 2020_03_06-09.50.37 167380           * 
                *                                                         * 
                *                                                         * 
                *  Please make sure you are using                         * 
                *  release Abaqus 2021 manuals                            * 
                *  plus the notes accompanying this release.              * 
                *                                                         * 
                *                                                         * 
                *                                                         * 
                *                                                         * 
                *                                                         * 
                *   This program may not be used for commercial purposes  * 
                *           without payment of a commercial fee.          * 
                *                                                         * 
                * * * * * * * * * * * * * * * * * * * * * * * * * * * * * * 


 



     PROCESSING PART, INSTANCE, AND ASSEMBLY INFORMATION
   *******************************************************


     END PROCESSING PART, INSTANCE, AND ASSEMBLY INFORMATION
   ***********************************************************




     OPTIONS BEING PROCESSED
   ***************************


  *Heading
  *Node
  *Element, type=C3D10H
  *Nset, nset=ASSEMBLY_PART-1-1_SET-1
  *Elset, elset=ASSEMBLY_PART-1-1_SET-1
  *Nset, nset=ASSEMBLY_BC-SET-1
  *Nset, nset=ASSEMBLY_BC-SET-2
  *Elset, elset=ASSEMBLY_BC-SET-1
  *Elset, elset=ASSEMBLY_BC-SET-2
  *material, name=MATERIAL-1
  *hyperelastic, n=3, ogden
  *solidsection, elset=ASSEMBLY_PART-1-1_SET-1, controls=EC-1, material=MATERIAL-1
  *sectioncontrols, name=EC-1, hourglass=ENHANCED

 ***WARNING: THE PARAMETER HOURGLASS = ENHANCED ON THE SECTION CONTROLS OPTION 
             IS RELEVANT FOR THESE ELEMENTS: C3D8R, CAX4R, CGAX4R, CPEG4R, 
             CPE4R, CPS4R, M3D4R, S4R, SC8R AND THEIR HYBRID, THERMAL AND 
             PRESSURE COUNTERPARTS WHEREVER APPLICABLE. IT IS ALSO RELEVANT FOR 
             ALL TYPES OF MODIFIED TRIANGULAR AND TETRAHEDRAL ELEMENTS. THIS 
             WARNING CAN BE IGNORED IF THE FEATURE IS APPLIED TO THESE ELEMENT 
             TYPES ONLY.
  *solidsection, elset=ASSEMBLY_PART-1-1_SET-1, controls=EC-1, material=MATERIAL-1
  *boundary
  *boundary
  *boundary
  *boundary
  *output, field, variable=PRESELECT
  *output, history, variable=PRESELECT
  *output, field, variable=PRESELECT
  *output, history, variable=PRESELECT
  *output, field, variable=PRESELECT
  *output, history, variable=PRESELECT
  
                               E L E M E N T   Q U A L I T Y  C H E C K S        
  
  
 ***NOTES: DISTORTED ISOPARAMETRIC ELEMENTS: ANGLE BETWEEN ISOPARAMETRIC LINES 
           IS LESS THAN 45 DEGREES OR GREATER THAN 135 DEGREES.
  
           TETRAHEDRAL QUALITY MEASURE: VOLUME OF TETRAHEDRON DIVIDED BY THE 
           VOLUME OF EQUILATERAL TETRAHEDRON WITH SAME CIRCUMSPHERE RADIUS; 
           0 FOR DEGENERATE TETRAHEDRON AND 1 FOR EQUILATERIAL TETRAHEDRON. IT 
           IS RECOMMENDED THAT THE TETRAHEDRAL QUALITY MEASURE BE GREATER THAN 
           0.02, THE MIN INTERIOR (DIHEDRAL) ANGLE BE GREATER THAN 10 DEGREES, 
           AND THE MAX INTERIOR (DIHEDRAL) ANGLE BE LESS THAN 160 DEGREES. 
  
           MODIFIED TETRAHEDRAL QUALITY MEASURE: ANGLES BETWEEN THE TWO LINE 
           SEGMENTS ON EACH EDGE; THE EDGES OF MODIFIED TETRAHEDRAL SHOULD BE 
           AS STRAIGHT AS POSSIBLE. IT IS RECOMMENDED THAT THE ANGLE BETWEEN 
           THE TWO LINE SEGMENTS ON EACH EDGE IS BETWEEN 160 AND 180 DEGREES. 
  
           TRIANGULAR QUALITY MEASURE: AREA OF TRIANGLE DIVIDED BY THE AREA OF 
           EQUILATERAL TRIANGLE WITH SAME CIRCUMCIRCLE RADIUS; 0 FOR DEGENERATE 
           TRIANGLE AND 1 FOR EQUILATERAL TRIANGLE. IT IS RECOMMENDED THAT THE
           TRIANGULAR QUALITY MEASURE BE GREATER THAN 0.01, THE MIN INTERIOR 
           ANGLE BE GREATER THAN 10 DEGREES, AND THE MAX INTERIOR ANGLE BE LESS 
           THAN 160 DEGREES. 
  
           NODAL ADJUSTMENTS ARISING FROM CONTACT INTERACTIONS AND/OR TIE 
           CONSTRAINTS CAN CAUSE SEVERE ELEMENT DISTORTION. IT MAY BE NECESSARY 
           TO REMESH IN ORDER TO REDUCE THE AMOUNT OF ADJUSTMENT. 

 ***WARNING: 7 elements are distorted. Either the isoparametric angles are out 
             of the suggested limits or the triangular or tetrahedral quality 
             measure is bad. The elements have been identified in element set 
             WarnElemDistorted.
  
 --------------------------------------------------------------------------------
 Distorted tetrahedral elements
  
      Element       Quality measure     Min angle        Max angle     Adjusted nodes 
 ------------------ ---------------- ---------------- ---------------- -------------- 
        PART-1-1.14       0.00354043          7.29263            159.9       NO       
        PART-1-1.53         0.134205          8.83036          133.946       NO       
        PART-1-1.62       0.00354043          16.0492          156.947       NO       
       PART-1-1.118       0.00427297          18.3665          125.868       NO       
       PART-1-1.126       0.00974342           9.5098          129.058       NO       
       PART-1-1.196       0.00974342          21.5295           147.52       NO       
       PART-1-1.206       0.00427297          8.02463          144.065       NO       
  
  
  *Step, name=Step-1, nlgeom=YES
  *output, field, variable=PRESELECT
  *output, history, variable=PRESELECT
  *Step, name=Step-1, nlgeom=YES
  *Step, name=Step-1, nlgeom=YES
  *static
  *boundary
  *boundary
  *output, field, variable=PRESELECT
  *output, history, variable=PRESELECT
  *nodeprint
  *elprint, position=CENTROIDAL

 ***WARNING: OUTPUT REQUEST DG IS ONLY AVAILABLE FOR *HYPERELASTIC/FOAM AND 
             *USER MATERIAL.
  *nodeprint, nset=ASSEMBLY_BC-SET-1
  *nodeprint, nset=ASSEMBLY_BC-SET-2
  *endstep
  *Step, name=Step-1, nlgeom=YES
  *static
  *boundary
  *boundary
  *endstep

 ***NOTE: Boundary conditions are specified on inactive dof of 147 nodes. The 
          nodes have been identified in node set WarnNodeBCInactiveDof.


                              E L E M E N T,   N O D E,   A N D   S U R F A C E   M A P S


**NOTE: This section may not include complete information about
        members of sets and surfaces. Use *PREPRINT, MODEL=YES 
        in order to get the set and surface members printed    
        under the following sections:                          
            - E L E M E N T   S E T S                          
            - N O D E   S E T S                                
            - S U R F A C E   D E F I N I T I O N S .          


Assembly name: ASSEMBLY
Number of instances: 1

ASSEMBLY LEVEL
  node sets:
    BC-SET-1:
      instance name: PART-1-1
      number of nodes: 147
      nodes: 
        1 2 3 4 9 10 11 12 13 14 15 16 17 18 19 20 21 22 23 24 25 26 27
        28 29 55 56 57 58 63 64 65 66 67 68 69 70 71 72 73 74 75 76 77
        78 79 80 81 82 83 147 151 152 156 160 161 168 172 173 210 211
        214 218 219 220 223 224 226 233 234 235 265 267 292 294 296 297
        302 311 312 322 324 326 327 328 331 356 368 369 370 374 379 381
        382 386 387 388 393 394 395 398 406 410 411 412 414 419 420 421
        422 426 427 435 448 458 460 465 484 493 494 498 499 514 516 517
        527 530 544 546 547 556 557 558 560 562 571 575 576 577 578 579
        580 583 589 590 597 604

    BC-SET-2:
      instance name: PART-1-1
      number of nodes: 147
      nodes: 
        5 6 7 8 32 33 34 35 36 37 38 39 40 41 42 43 44 45 46 47 48 49 50
        51 52 59 60 61 62 86 87 88 89 90 91 92 93 94 95 96 97 98 99 100
        101 102 103 104 105 106 123 134 146 154 155 162 163 164 177 179
        184 185 186 188 190 193 197 199 200 251 252 275 276 284 285 286
        317 318 335 336 337 338 350 357 360 361 365 375 384 408 429 431
        440 443 444 449 451 452 455 456 463 464 467 468 472 476 477 479
        480 483 487 488 489 492 495 500 505 506 508 510 511 519 522 523
        524 534 535 537 538 539 540 548 549 555 570 581 586 587 588 591
        593 594 595 596 598 599 602

  element sets:
    BC-SET-1:
      instance name: PART-1-1
      number of elements: 139
      elements: 
        1 3 5 7 9 18 19 21 22 23 24 25 26 27 29 30 31 32 33 36 37 38 40
        42 43 44 45 48 49 50 51 52 55 56 58 59 61 64 65 67 68 70 71 72
        73 74 75 76 77 79 80 81 84 85 86 87 89 90 91 92 94 95 96 101 104
        105 106 108 112 117 121 122 123 127 129 131 132 133 142 143 145
        150 151 152 154 155 157 159 160 162 164 165 166 167 168 169 170
        171 173 174 175 176 178 181 182 185 187 188 189 191 192 193 194
        195 197 198 201 202 203 204 205 208 211 212 214 215 224 225 226
        229 232 235 237 238 239 243 245 246 249

    BC-SET-2:
      instance name: PART-1-1
      number of elements: 155
      elements: 
        1 2 3 4 6 8 10 11 12 13 14 15 16 17 18 20 24 26 27 28 30 31 34
        35 36 37 39 41 43 46 47 48 53 54 55 56 57 60 62 63 64 66 69 70
        75 76 77 78 79 82 83 88 90 92 93 94 96 97 98 99 100 102 103 104
        107 109 110 111 112 113 114 115 116 118 119 120 122 124 125 126
        128 129 130 132 134 135 136 137 138 139 140 141 142 144 146 147
        148 149 152 153 156 161 162 163 172 174 175 176 177 178 179 180
        181 183 186 190 195 196 199 200 201 202 203 205 206 207 209 210
        211 213 215 216 217 218 219 220 221 222 223 227 228 229 230 231
        233 234 235 236 239 240 241 242 244 247 248

  Surfaces:

INSTANCE LEVEL
  node sets:
    Instance name: PART-1-1
      node set name: SET-1
        number of nodes: 604
        nodes: 
          1 2 3 4 5 6 7 8 9 10 11 12 13 14 15 16 17 18 19 20 21 22 23 24
          25 26 27 28 29 30 31 32 33 34 35 36 37 38 39 40 41 42 43 44 45
          46 47 48 49 50 51 52 53 54 55 56 57 58 59 60 61 62 63 64 65 66
          67 68 69 70 71 72 73 74 75 76 77 78 79 80 81 82 83 84 85 86 87
          88 89 90 91 92 93 94 95 96 97 98 99 100 101 102 103 104 105
          106 107 108 109 110 111 112 113 114 115 116 117 118 119 120
          121 122 123 124 125 126 127 128 129 130 131 132 133 134 135
          136 137 138 139 140 141 142 143 144 145 146 147 148 149 150
          151 152 153 154 155 156 157 158 159 160 161 162 163 164 165
          166 167 168 169 170 171 172 173 174 175 176 177 178 179 180
          181 182 183 184 185 186 187 188 189 190 191 192 193 194 195
          196 197 198 199 200 201 202 203 204 205 206 207 208 209 210
          211 212 213 214 215 216 217 218 219 220 221 222 223 224 225
          226 227 228 229 230 231 232 233 234 235 236 237 238 239 240
          241 242 243 244 245 246 247 248 249 250 251 252 253 254 255
          256 257 258 259 260 261 262 263 264 265 266 267 268 269 270
          271 272 273 274 275 276 277 278 279 280 281 282 283 284 285
          286 287 288 289 290 291 292 293 294 295 296 297 298 299 300
          301 302 303 304 305 306 307 308 309 310 311 312 313 314 315
          316 317 318 319 320 321 322 323 324 325 326 327 328 329 330
          331 332 333 334 335 336 337 338 339 340 341 342 343 344 345
          346 347 348 349 350 351 352 353 354 355 356 357 358 359 360
          361 362 363 364 365 366 367 368 369 370 371 372 373 374 375
          376 377 378 379 380 381 382 383 384 385 386 387 388 389 390
          391 392 393 394 395 396 397 398 399 400 401 402 403 404 405
          406 407 408 409 410 411 412 413 414 415 416 417 418 419 420
          421 422 423 424 425 426 427 428 429 430 431 432 433 434 435
          436 437 438 439 440 441 442 443 444 445 446 447 448 449 450
          451 452 453 454 455 456 457 458 459 460 461 462 463 464 465
          466 467 468 469 470 471 472 473 474 475 476 477 478 479 480
          481 482 483 484 485 486 487 488 489 490 491 492 493 494 495
          496 497 498 499 500 501 502 503 504 505 506 507 508 509 510
          511 512 513 514 515 516 517 518 519 520 521 522 523 524 525
          526 527 528 529 530 531 532 533 534 535 536 537 538 539 540
          541 542 543 544 545 546 547 548 549 550 551 552 553 554 555
          556 557 558 559 560 561 562 563 564 565 566 567 568 569 570
          571 572 573 574 575 576 577 578 579 580 581 582 583 584 585
          586 587 588 589 590 591 592 593 594 595 596 597 598 599 600
          601 602 603 604

  element sets:
    Instance name: PART-1-1
      element set name: SET-1
        number of elements: 249
        elements: 
          1 2 3 4 5 6 7 8 9 10 11 12 13 14 15 16 17 18 19 20 21 22 23 24
          25 26 27 28 29 30 31 32 33 34 35 36 37 38 39 40 41 42 43 44 45
          46 47 48 49 50 51 52 53 54 55 56 57 58 59 60 61 62 63 64 65 66
          67 68 69 70 71 72 73 74 75 76 77 78 79 80 81 82 83 84 85 86 87
          88 89 90 91 92 93 94 95 96 97 98 99 100 101 102 103 104 105
          106 107 108 109 110 111 112 113 114 115 116 117 118 119 120
          121 122 123 124 125 126 127 128 129 130 131 132 133 134 135
          136 137 138 139 140 141 142 143 144 145 146 147 148 149 150
          151 152 153 154 155 156 157 158 159 160 161 162 163 164 165
          166 167 168 169 170 171 172 173 174 175 176 177 178 179 180
          181 182 183 184 185 186 187 188 189 190 191 192 193 194 195
          196 197 198 199 200 201 202 203 204 205 206 207 208 209 210
          211 212 213 214 215 216 217 218 219 220 221 222 223 224 225
          226 227 228 229 230 231 232 233 234 235 236 237 238 239 240
          241 242 243 244 245 246 247 248 249

  Surfaces:

GLOBAL TO LOCAL NODE AND ELEMENT MAPS
  Global     Local      
  node       node       
  number     number     
                        Instance name                                   
   1          1         PART-1-1                                        
   2          2         PART-1-1                                        
   3          3         PART-1-1                                        
   4          4         PART-1-1                                        
   5          5         PART-1-1                                        
   6          6         PART-1-1                                        
   7          7         PART-1-1                                        
   8          8         PART-1-1                                        
   9          9         PART-1-1                                        
   10         10        PART-1-1                                        
   11         11        PART-1-1                                        
   12         12        PART-1-1                                        
   13         13        PART-1-1                                        
   14         14        PART-1-1                                        
   15         15        PART-1-1                                        
   16         16        PART-1-1                                        
   17         17        PART-1-1                                        
   18         18        PART-1-1                                        
   19         19        PART-1-1                                        
   20         20        PART-1-1                                        
   21         21        PART-1-1                                        
   22         22        PART-1-1                                        
   23         23        PART-1-1                                        
   24         24        PART-1-1                                        
   25         25        PART-1-1                                        
   26         26        PART-1-1                                        
   27         27        PART-1-1                                        
   28         28        PART-1-1                                        
   29         29        PART-1-1                                        
   30         30        PART-1-1                                        
   31         31        PART-1-1                                        
   32         32        PART-1-1                                        
   33         33        PART-1-1                                        
   34         34        PART-1-1                                        
   35         35        PART-1-1                                        
   36         36        PART-1-1                                        
   37         37        PART-1-1                                        
   38         38        PART-1-1                                        
   39         39        PART-1-1                                        
   40         40        PART-1-1                                        
   41         41        PART-1-1                                        
   42         42        PART-1-1                                        
   43         43        PART-1-1                                        
   44         44        PART-1-1                                        
   45         45        PART-1-1                                        
   46         46        PART-1-1                                        
   47         47        PART-1-1                                        
   48         48        PART-1-1                                        
   49         49        PART-1-1                                        
   50         50        PART-1-1                                        
   51         51        PART-1-1                                        
   52         52        PART-1-1                                        
   53         53        PART-1-1                                        
   54         54        PART-1-1                                        
   55         55        PART-1-1                                        
   56         56        PART-1-1                                        
   57         57        PART-1-1                                        
   58         58        PART-1-1                                        
   59         59        PART-1-1                                        
   60         60        PART-1-1                                        
   61         61        PART-1-1                                        
   62         62        PART-1-1                                        
   63         63        PART-1-1                                        
   64         64        PART-1-1                                        
   65         65        PART-1-1                                        
   66         66        PART-1-1                                        
   67         67        PART-1-1                                        
   68         68        PART-1-1                                        
   69         69        PART-1-1                                        
   70         70        PART-1-1                                        
   71         71        PART-1-1                                        
   72         72        PART-1-1                                        
   73         73        PART-1-1                                        
   74         74        PART-1-1                                        
   75         75        PART-1-1                                        
   76         76        PART-1-1                                        
   77         77        PART-1-1                                        
   78         78        PART-1-1                                        
   79         79        PART-1-1                                        
   80         80        PART-1-1                                        
   81         81        PART-1-1                                        
   82         82        PART-1-1                                        
   83         83        PART-1-1                                        
   84         84        PART-1-1                                        
   85         85        PART-1-1                                        
   86         86        PART-1-1                                        
   87         87        PART-1-1                                        
   88         88        PART-1-1                                        
   89         89        PART-1-1                                        
   90         90        PART-1-1                                        
   91         91        PART-1-1                                        
   92         92        PART-1-1                                        
   93         93        PART-1-1                                        
   94         94        PART-1-1                                        
   95         95        PART-1-1                                        
   96         96        PART-1-1                                        
   97         97        PART-1-1                                        
   98         98        PART-1-1                                        
   99         99        PART-1-1                                        
   100        100       PART-1-1                                        
   101        101       PART-1-1                                        
   102        102       PART-1-1                                        
   103        103       PART-1-1                                        
   104        104       PART-1-1                                        
   105        105       PART-1-1                                        
   106        106       PART-1-1                                        
   107        107       PART-1-1                                        
   108        108       PART-1-1                                        
   109        109       PART-1-1                                        
   110        110       PART-1-1                                        
   111        111       PART-1-1                                        
   112        112       PART-1-1                                        
   113        113       PART-1-1                                        
   114        114       PART-1-1                                        
   115        115       PART-1-1                                        
   116        116       PART-1-1                                        
   117        117       PART-1-1                                        
   118        118       PART-1-1                                        
   119        119       PART-1-1                                        
   120        120       PART-1-1                                        
   121        121       PART-1-1                                        
   122        122       PART-1-1                                        
   123        123       PART-1-1                                        
   124        124       PART-1-1                                        
   125        125       PART-1-1                                        
   126        126       PART-1-1                                        
   127        127       PART-1-1                                        
   128        128       PART-1-1                                        
   129        129       PART-1-1                                        
   130        130       PART-1-1                                        
   131        131       PART-1-1                                        
   132        132       PART-1-1                                        
   133        133       PART-1-1                                        
   134        134       PART-1-1                                        
   135        135       PART-1-1                                        
   136        136       PART-1-1                                        
   137        137       PART-1-1                                        
   138        138       PART-1-1                                        
   139        139       PART-1-1                                        
   140        140       PART-1-1                                        
   141        141       PART-1-1                                        
   142        142       PART-1-1                                        
   143        143       PART-1-1                                        
   144        144       PART-1-1                                        
   145        145       PART-1-1                                        
   146        146       PART-1-1                                        
   147        147       PART-1-1                                        
   148        148       PART-1-1                                        
   149        149       PART-1-1                                        
   150        150       PART-1-1                                        
   151        151       PART-1-1                                        
   152        152       PART-1-1                                        
   153        153       PART-1-1                                        
   154        154       PART-1-1                                        
   155        155       PART-1-1                                        
   156        156       PART-1-1                                        
   157        157       PART-1-1                                        
   158        158       PART-1-1                                        
   159        159       PART-1-1                                        
   160        160       PART-1-1                                        
   161        161       PART-1-1                                        
   162        162       PART-1-1                                        
   163        163       PART-1-1                                        
   164        164       PART-1-1                                        
   165        165       PART-1-1                                        
   166        166       PART-1-1                                        
   167        167       PART-1-1                                        
   168        168       PART-1-1                                        
   169        169       PART-1-1                                        
   170        170       PART-1-1                                        
   171        171       PART-1-1                                        
   172        172       PART-1-1                                        
   173        173       PART-1-1                                        
   174        174       PART-1-1                                        
   175        175       PART-1-1                                        
   176        176       PART-1-1                                        
   177        177       PART-1-1                                        
   178        178       PART-1-1                                        
   179        179       PART-1-1                                        
   180        180       PART-1-1                                        
   181        181       PART-1-1                                        
   182        182       PART-1-1                                        
   183        183       PART-1-1                                        
   184        184       PART-1-1                                        
   185        185       PART-1-1                                        
   186        186       PART-1-1                                        
   187        187       PART-1-1                                        
   188        188       PART-1-1                                        
   189        189       PART-1-1                                        
   190        190       PART-1-1                                        
   191        191       PART-1-1                                        
   192        192       PART-1-1                                        
   193        193       PART-1-1                                        
   194        194       PART-1-1                                        
   195        195       PART-1-1                                        
   196        196       PART-1-1                                        
   197        197       PART-1-1                                        
   198        198       PART-1-1                                        
   199        199       PART-1-1                                        
   200        200       PART-1-1                                        
   201        201       PART-1-1                                        
   202        202       PART-1-1                                        
   203        203       PART-1-1                                        
   204        204       PART-1-1                                        
   205        205       PART-1-1                                        
   206        206       PART-1-1                                        
   207        207       PART-1-1                                        
   208        208       PART-1-1                                        
   209        209       PART-1-1                                        
   210        210       PART-1-1                                        
   211        211       PART-1-1                                        
   212        212       PART-1-1                                        
   213        213       PART-1-1                                        
   214        214       PART-1-1                                        
   215        215       PART-1-1                                        
   216        216       PART-1-1                                        
   217        217       PART-1-1                                        
   218        218       PART-1-1                                        
   219        219       PART-1-1                                        
   220        220       PART-1-1                                        
   221        221       PART-1-1                                        
   222        222       PART-1-1                                        
   223        223       PART-1-1                                        
   224        224       PART-1-1                                        
   225        225       PART-1-1                                        
   226        226       PART-1-1                                        
   227        227       PART-1-1                                        
   228        228       PART-1-1                                        
   229        229       PART-1-1                                        
   230        230       PART-1-1                                        
   231        231       PART-1-1                                        
   232        232       PART-1-1                                        
   233        233       PART-1-1                                        
   234        234       PART-1-1                                        
   235        235       PART-1-1                                        
   236        236       PART-1-1                                        
   237        237       PART-1-1                                        
   238        238       PART-1-1                                        
   239        239       PART-1-1                                        
   240        240       PART-1-1                                        
   241        241       PART-1-1                                        
   242        242       PART-1-1                                        
   243        243       PART-1-1                                        
   244        244       PART-1-1                                        
   245        245       PART-1-1                                        
   246        246       PART-1-1                                        
   247        247       PART-1-1                                        
   248        248       PART-1-1                                        
   249        249       PART-1-1                                        
   250        250       PART-1-1                                        
   251        251       PART-1-1                                        
   252        252       PART-1-1                                        
   253        253       PART-1-1                                        
   254        254       PART-1-1                                        
   255        255       PART-1-1                                        
   256        256       PART-1-1                                        
   257        257       PART-1-1                                        
   258        258       PART-1-1                                        
   259        259       PART-1-1                                        
   260        260       PART-1-1                                        
   261        261       PART-1-1                                        
   262        262       PART-1-1                                        
   263        263       PART-1-1                                        
   264        264       PART-1-1                                        
   265        265       PART-1-1                                        
   266        266       PART-1-1                                        
   267        267       PART-1-1                                        
   268        268       PART-1-1                                        
   269        269       PART-1-1                                        
   270        270       PART-1-1                                        
   271        271       PART-1-1                                        
   272        272       PART-1-1                                        
   273        273       PART-1-1                                        
   274        274       PART-1-1                                        
   275        275       PART-1-1                                        
   276        276       PART-1-1                                        
   277        277       PART-1-1                                        
   278        278       PART-1-1                                        
   279        279       PART-1-1                                        
   280        280       PART-1-1                                        
   281        281       PART-1-1                                        
   282        282       PART-1-1                                        
   283        283       PART-1-1                                        
   284        284       PART-1-1                                        
   285        285       PART-1-1                                        
   286        286       PART-1-1                                        
   287        287       PART-1-1                                        
   288        288       PART-1-1                                        
   289        289       PART-1-1                                        
   290        290       PART-1-1                                        
   291        291       PART-1-1                                        
   292        292       PART-1-1                                        
   293        293       PART-1-1                                        
   294        294       PART-1-1                                        
   295        295       PART-1-1                                        
   296        296       PART-1-1                                        
   297        297       PART-1-1                                        
   298        298       PART-1-1                                        
   299        299       PART-1-1                                        
   300        300       PART-1-1                                        
   301        301       PART-1-1                                        
   302        302       PART-1-1                                        
   303        303       PART-1-1                                        
   304        304       PART-1-1                                        
   305        305       PART-1-1                                        
   306        306       PART-1-1                                        
   307        307       PART-1-1                                        
   308        308       PART-1-1                                        
   309        309       PART-1-1                                        
   310        310       PART-1-1                                        
   311        311       PART-1-1                                        
   312        312       PART-1-1                                        
   313        313       PART-1-1                                        
   314        314       PART-1-1                                        
   315        315       PART-1-1                                        
   316        316       PART-1-1                                        
   317        317       PART-1-1                                        
   318        318       PART-1-1                                        
   319        319       PART-1-1                                        
   320        320       PART-1-1                                        
   321        321       PART-1-1                                        
   322        322       PART-1-1                                        
   323        323       PART-1-1                                        
   324        324       PART-1-1                                        
   325        325       PART-1-1                                        
   326        326       PART-1-1                                        
   327        327       PART-1-1                                        
   328        328       PART-1-1                                        
   329        329       PART-1-1                                        
   330        330       PART-1-1                                        
   331        331       PART-1-1                                        
   332        332       PART-1-1                                        
   333        333       PART-1-1                                        
   334        334       PART-1-1                                        
   335        335       PART-1-1                                        
   336        336       PART-1-1                                        
   337        337       PART-1-1                                        
   338        338       PART-1-1                                        
   339        339       PART-1-1                                        
   340        340       PART-1-1                                        
   341        341       PART-1-1                                        
   342        342       PART-1-1                                        
   343        343       PART-1-1                                        
   344        344       PART-1-1                                        
   345        345       PART-1-1                                        
   346        346       PART-1-1                                        
   347        347       PART-1-1                                        
   348        348       PART-1-1                                        
   349        349       PART-1-1                                        
   350        350       PART-1-1                                        
   351        351       PART-1-1                                        
   352        352       PART-1-1                                        
   353        353       PART-1-1                                        
   354        354       PART-1-1                                        
   355        355       PART-1-1                                        
   356        356       PART-1-1                                        
   357        357       PART-1-1                                        
   358        358       PART-1-1                                        
   359        359       PART-1-1                                        
   360        360       PART-1-1                                        
   361        361       PART-1-1                                        
   362        362       PART-1-1                                        
   363        363       PART-1-1                                        
   364        364       PART-1-1                                        
   365        365       PART-1-1                                        
   366        366       PART-1-1                                        
   367        367       PART-1-1                                        
   368        368       PART-1-1                                        
   369        369       PART-1-1                                        
   370        370       PART-1-1                                        
   371        371       PART-1-1                                        
   372        372       PART-1-1                                        
   373        373       PART-1-1                                        
   374        374       PART-1-1                                        
   375        375       PART-1-1                                        
   376        376       PART-1-1                                        
   377        377       PART-1-1                                        
   378        378       PART-1-1                                        
   379        379       PART-1-1                                        
   380        380       PART-1-1                                        
   381        381       PART-1-1                                        
   382        382       PART-1-1                                        
   383        383       PART-1-1                                        
   384        384       PART-1-1                                        
   385        385       PART-1-1                                        
   386        386       PART-1-1                                        
   387        387       PART-1-1                                        
   388        388       PART-1-1                                        
   389        389       PART-1-1                                        
   390        390       PART-1-1                                        
   391        391       PART-1-1                                        
   392        392       PART-1-1                                        
   393        393       PART-1-1                                        
   394        394       PART-1-1                                        
   395        395       PART-1-1                                        
   396        396       PART-1-1                                        
   397        397       PART-1-1                                        
   398        398       PART-1-1                                        
   399        399       PART-1-1                                        
   400        400       PART-1-1                                        
   401        401       PART-1-1                                        
   402        402       PART-1-1                                        
   403        403       PART-1-1                                        
   404        404       PART-1-1                                        
   405        405       PART-1-1                                        
   406        406       PART-1-1                                        
   407        407       PART-1-1                                        
   408        408       PART-1-1                                        
   409        409       PART-1-1                                        
   410        410       PART-1-1                                        
   411        411       PART-1-1                                        
   412        412       PART-1-1                                        
   413        413       PART-1-1                                        
   414        414       PART-1-1                                        
   415        415       PART-1-1                                        
   416        416       PART-1-1                                        
   417        417       PART-1-1                                        
   418        418       PART-1-1                                        
   419        419       PART-1-1                                        
   420        420       PART-1-1                                        
   421        421       PART-1-1                                        
   422        422       PART-1-1                                        
   423        423       PART-1-1                                        
   424        424       PART-1-1                                        
   425        425       PART-1-1                                        
   426        426       PART-1-1                                        
   427        427       PART-1-1                                        
   428        428       PART-1-1                                        
   429        429       PART-1-1                                        
   430        430       PART-1-1                                        
   431        431       PART-1-1                                        
   432        432       PART-1-1                                        
   433        433       PART-1-1                                        
   434        434       PART-1-1                                        
   435        435       PART-1-1                                        
   436        436       PART-1-1                                        
   437        437       PART-1-1                                        
   438        438       PART-1-1                                        
   439        439       PART-1-1                                        
   440        440       PART-1-1                                        
   441        441       PART-1-1                                        
   442        442       PART-1-1                                        
   443        443       PART-1-1                                        
   444        444       PART-1-1                                        
   445        445       PART-1-1                                        
   446        446       PART-1-1                                        
   447        447       PART-1-1                                        
   448        448       PART-1-1                                        
   449        449       PART-1-1                                        
   450        450       PART-1-1                                        
   451        451       PART-1-1                                        
   452        452       PART-1-1                                        
   453        453       PART-1-1                                        
   454        454       PART-1-1                                        
   455        455       PART-1-1                                        
   456        456       PART-1-1                                        
   457        457       PART-1-1                                        
   458        458       PART-1-1                                        
   459        459       PART-1-1                                        
   460        460       PART-1-1                                        
   461        461       PART-1-1                                        
   462        462       PART-1-1                                        
   463        463       PART-1-1                                        
   464        464       PART-1-1                                        
   465        465       PART-1-1                                        
   466        466       PART-1-1                                        
   467        467       PART-1-1                                        
   468        468       PART-1-1                                        
   469        469       PART-1-1                                        
   470        470       PART-1-1                                        
   471        471       PART-1-1                                        
   472        472       PART-1-1                                        
   473        473       PART-1-1                                        
   474        474       PART-1-1                                        
   475        475       PART-1-1                                        
   476        476       PART-1-1                                        
   477        477       PART-1-1                                        
   478        478       PART-1-1                                        
   479        479       PART-1-1                                        
   480        480       PART-1-1                                        
   481        481       PART-1-1                                        
   482        482       PART-1-1                                        
   483        483       PART-1-1                                        
   484        484       PART-1-1                                        
   485        485       PART-1-1                                        
   486        486       PART-1-1                                        
   487        487       PART-1-1                                        
   488        488       PART-1-1                                        
   489        489       PART-1-1                                        
   490        490       PART-1-1                                        
   491        491       PART-1-1                                        
   492        492       PART-1-1                                        
   493        493       PART-1-1                                        
   494        494       PART-1-1                                        
   495        495       PART-1-1                                        
   496        496       PART-1-1                                        
   497        497       PART-1-1                                        
   498        498       PART-1-1                                        
   499        499       PART-1-1                                        
   500        500       PART-1-1                                        
   501        501       PART-1-1                                        
   502        502       PART-1-1                                        
   503        503       PART-1-1                                        
   504        504       PART-1-1                                        
   505        505       PART-1-1                                        
   506        506       PART-1-1                                        
   507        507       PART-1-1                                        
   508        508       PART-1-1                                        
   509        509       PART-1-1                                        
   510        510       PART-1-1                                        
   511        511       PART-1-1                                        
   512        512       PART-1-1                                        
   513        513       PART-1-1                                        
   514        514       PART-1-1                                        
   515        515       PART-1-1                                        
   516        516       PART-1-1                                        
   517        517       PART-1-1                                        
   518        518       PART-1-1                                        
   519        519       PART-1-1                                        
   520        520       PART-1-1                                        
   521        521       PART-1-1                                        
   522        522       PART-1-1                                        
   523        523       PART-1-1                                        
   524        524       PART-1-1                                        
   525        525       PART-1-1                                        
   526        526       PART-1-1                                        
   527        527       PART-1-1                                        
   528        528       PART-1-1                                        
   529        529       PART-1-1                                        
   530        530       PART-1-1                                        
   531        531       PART-1-1                                        
   532        532       PART-1-1                                        
   533        533       PART-1-1                                        
   534        534       PART-1-1                                        
   535        535       PART-1-1                                        
   536        536       PART-1-1                                        
   537        537       PART-1-1                                        
   538        538       PART-1-1                                        
   539        539       PART-1-1                                        
   540        540       PART-1-1                                        
   541        541       PART-1-1                                        
   542        542       PART-1-1                                        
   543        543       PART-1-1                                        
   544        544       PART-1-1                                        
   545        545       PART-1-1                                        
   546        546       PART-1-1                                        
   547        547       PART-1-1                                        
   548        548       PART-1-1                                        
   549        549       PART-1-1                                        
   550        550       PART-1-1                                        
   551        551       PART-1-1                                        
   552        552       PART-1-1                                        
   553        553       PART-1-1                                        
   554        554       PART-1-1                                        
   555        555       PART-1-1                                        
   556        556       PART-1-1                                        
   557        557       PART-1-1                                        
   558        558       PART-1-1                                        
   559        559       PART-1-1                                        
   560        560       PART-1-1                                        
   561        561       PART-1-1                                        
   562        562       PART-1-1                                        
   563        563       PART-1-1                                        
   564        564       PART-1-1                                        
   565        565       PART-1-1                                        
   566        566       PART-1-1                                        
   567        567       PART-1-1                                        
   568        568       PART-1-1                                        
   569        569       PART-1-1                                        
   570        570       PART-1-1                                        
   571        571       PART-1-1                                        
   572        572       PART-1-1                                        
   573        573       PART-1-1                                        
   574        574       PART-1-1                                        
   575        575       PART-1-1                                        
   576        576       PART-1-1                                        
   577        577       PART-1-1                                        
   578        578       PART-1-1                                        
   579        579       PART-1-1                                        
   580        580       PART-1-1                                        
   581        581       PART-1-1                                        
   582        582       PART-1-1                                        
   583        583       PART-1-1                                        
   584        584       PART-1-1                                        
   585        585       PART-1-1                                        
   586        586       PART-1-1                                        
   587        587       PART-1-1                                        
   588        588       PART-1-1                                        
   589        589       PART-1-1                                        
   590        590       PART-1-1                                        
   591        591       PART-1-1                                        
   592        592       PART-1-1                                        
   593        593       PART-1-1                                        
   594        594       PART-1-1                                        
   595        595       PART-1-1                                        
   596        596       PART-1-1                                        
   597        597       PART-1-1                                        
   598        598       PART-1-1                                        
   599        599       PART-1-1                                        
   600        600       PART-1-1                                        
   601        601       PART-1-1                                        
   602        602       PART-1-1                                        
   603        603       PART-1-1                                        
   604        604       PART-1-1                                        

  Global     Local      
  element    element    
  number     number     
                        Instance name                                   
   1          1         PART-1-1                                        
   2          2         PART-1-1                                        
   3          3         PART-1-1                                        
   4          4         PART-1-1                                        
   5          5         PART-1-1                                        
   6          6         PART-1-1                                        
   7          7         PART-1-1                                        
   8          8         PART-1-1                                        
   9          9         PART-1-1                                        
   10         10        PART-1-1                                        
   11         11        PART-1-1                                        
   12         12        PART-1-1                                        
   13         13        PART-1-1                                        
   14         14        PART-1-1                                        
   15         15        PART-1-1                                        
   16         16        PART-1-1                                        
   17         17        PART-1-1                                        
   18         18        PART-1-1                                        
   19         19        PART-1-1                                        
   20         20        PART-1-1                                        
   21         21        PART-1-1                                        
   22         22        PART-1-1                                        
   23         23        PART-1-1                                        
   24         24        PART-1-1                                        
   25         25        PART-1-1                                        
   26         26        PART-1-1                                        
   27         27        PART-1-1                                        
   28         28        PART-1-1                                        
   29         29        PART-1-1                                        
   30         30        PART-1-1                                        
   31         31        PART-1-1                                        
   32         32        PART-1-1                                        
   33         33        PART-1-1                                        
   34         34        PART-1-1                                        
   35         35        PART-1-1                                        
   36         36        PART-1-1                                        
   37         37        PART-1-1                                        
   38         38        PART-1-1                                        
   39         39        PART-1-1                                        
   40         40        PART-1-1                                        
   41         41        PART-1-1                                        
   42         42        PART-1-1                                        
   43         43        PART-1-1                                        
   44         44        PART-1-1                                        
   45         45        PART-1-1                                        
   46         46        PART-1-1                                        
   47         47        PART-1-1                                        
   48         48        PART-1-1                                        
   49         49        PART-1-1                                        
   50         50        PART-1-1                                        
   51         51        PART-1-1                                        
   52         52        PART-1-1                                        
   53         53        PART-1-1                                        
   54         54        PART-1-1                                        
   55         55        PART-1-1                                        
   56         56        PART-1-1                                        
   57         57        PART-1-1                                        
   58         58        PART-1-1                                        
   59         59        PART-1-1                                        
   60         60        PART-1-1                                        
   61         61        PART-1-1                                        
   62         62        PART-1-1                                        
   63         63        PART-1-1                                        
   64         64        PART-1-1                                        
   65         65        PART-1-1                                        
   66         66        PART-1-1                                        
   67         67        PART-1-1                                        
   68         68        PART-1-1                                        
   69         69        PART-1-1                                        
   70         70        PART-1-1                                        
   71         71        PART-1-1                                        
   72         72        PART-1-1                                        
   73         73        PART-1-1                                        
   74         74        PART-1-1                                        
   75         75        PART-1-1                                        
   76         76        PART-1-1                                        
   77         77        PART-1-1                                        
   78         78        PART-1-1                                        
   79         79        PART-1-1                                        
   80         80        PART-1-1                                        
   81         81        PART-1-1                                        
   82         82        PART-1-1                                        
   83         83        PART-1-1                                        
   84         84        PART-1-1                                        
   85         85        PART-1-1                                        
   86         86        PART-1-1                                        
   87         87        PART-1-1                                        
   88         88        PART-1-1                                        
   89         89        PART-1-1                                        
   90         90        PART-1-1                                        
   91         91        PART-1-1                                        
   92         92        PART-1-1                                        
   93         93        PART-1-1                                        
   94         94        PART-1-1                                        
   95         95        PART-1-1                                        
   96         96        PART-1-1                                        
   97         97        PART-1-1                                        
   98         98        PART-1-1                                        
   99         99        PART-1-1                                        
   100        100       PART-1-1                                        
   101        101       PART-1-1                                        
   102        102       PART-1-1                                        
   103        103       PART-1-1                                        
   104        104       PART-1-1                                        
   105        105       PART-1-1                                        
   106        106       PART-1-1                                        
   107        107       PART-1-1                                        
   108        108       PART-1-1                                        
   109        109       PART-1-1                                        
   110        110       PART-1-1                                        
   111        111       PART-1-1                                        
   112        112       PART-1-1                                        
   113        113       PART-1-1                                        
   114        114       PART-1-1                                        
   115        115       PART-1-1                                        
   116        116       PART-1-1                                        
   117        117       PART-1-1                                        
   118        118       PART-1-1                                        
   119        119       PART-1-1                                        
   120        120       PART-1-1                                        
   121        121       PART-1-1                                        
   122        122       PART-1-1                                        
   123        123       PART-1-1                                        
   124        124       PART-1-1                                        
   125        125       PART-1-1                                        
   126        126       PART-1-1                                        
   127        127       PART-1-1                                        
   128        128       PART-1-1                                        
   129        129       PART-1-1                                        
   130        130       PART-1-1                                        
   131        131       PART-1-1                                        
   132        132       PART-1-1                                        
   133        133       PART-1-1                                        
   134        134       PART-1-1                                        
   135        135       PART-1-1                                        
   136        136       PART-1-1                                        
   137        137       PART-1-1                                        
   138        138       PART-1-1                                        
   139        139       PART-1-1                                        
   140        140       PART-1-1                                        
   141        141       PART-1-1                                        
   142        142       PART-1-1                                        
   143        143       PART-1-1                                        
   144        144       PART-1-1                                        
   145        145       PART-1-1                                        
   146        146       PART-1-1                                        
   147        147       PART-1-1                                        
   148        148       PART-1-1                                        
   149        149       PART-1-1                                        
   150        150       PART-1-1                                        
   151        151       PART-1-1                                        
   152        152       PART-1-1                                        
   153        153       PART-1-1                                        
   154        154       PART-1-1                                        
   155        155       PART-1-1                                        
   156        156       PART-1-1                                        
   157        157       PART-1-1                                        
   158        158       PART-1-1                                        
   159        159       PART-1-1                                        
   160        160       PART-1-1                                        
   161        161       PART-1-1                                        
   162        162       PART-1-1                                        
   163        163       PART-1-1                                        
   164        164       PART-1-1                                        
   165        165       PART-1-1                                        
   166        166       PART-1-1                                        
   167        167       PART-1-1                                        
   168        168       PART-1-1                                        
   169        169       PART-1-1                                        
   170        170       PART-1-1                                        
   171        171       PART-1-1                                        
   172        172       PART-1-1                                        
   173        173       PART-1-1                                        
   174        174       PART-1-1                                        
   175        175       PART-1-1                                        
   176        176       PART-1-1                                        
   177        177       PART-1-1                                        
   178        178       PART-1-1                                        
   179        179       PART-1-1                                        
   180        180       PART-1-1                                        
   181        181       PART-1-1                                        
   182        182       PART-1-1                                        
   183        183       PART-1-1                                        
   184        184       PART-1-1                                        
   185        185       PART-1-1                                        
   186        186       PART-1-1                                        
   187        187       PART-1-1                                        
   188        188       PART-1-1                                        
   189        189       PART-1-1                                        
   190        190       PART-1-1                                        
   191        191       PART-1-1                                        
   192        192       PART-1-1                                        
   193        193       PART-1-1                                        
   194        194       PART-1-1                                        
   195        195       PART-1-1                                        
   196        196       PART-1-1                                        
   197        197       PART-1-1                                        
   198        198       PART-1-1                                        
   199        199       PART-1-1                                        
   200        200       PART-1-1                                        
   201        201       PART-1-1                                        
   202        202       PART-1-1                                        
   203        203       PART-1-1                                        
   204        204       PART-1-1                                        
   205        205       PART-1-1                                        
   206        206       PART-1-1                                        
   207        207       PART-1-1                                        
   208        208       PART-1-1                                        
   209        209       PART-1-1                                        
   210        210       PART-1-1                                        
   211        211       PART-1-1                                        
   212        212       PART-1-1                                        
   213        213       PART-1-1                                        
   214        214       PART-1-1                                        
   215        215       PART-1-1                                        
   216        216       PART-1-1                                        
   217        217       PART-1-1                                        
   218        218       PART-1-1                                        
   219        219       PART-1-1                                        
   220        220       PART-1-1                                        
   221        221       PART-1-1                                        
   222        222       PART-1-1                                        
   223        223       PART-1-1                                        
   224        224       PART-1-1                                        
   225        225       PART-1-1                                        
   226        226       PART-1-1                                        
   227        227       PART-1-1                                        
   228        228       PART-1-1                                        
   229        229       PART-1-1                                        
   230        230       PART-1-1                                        
   231        231       PART-1-1                                        
   232        232       PART-1-1                                        
   233        233       PART-1-1                                        
   234        234       PART-1-1                                        
   235        235       PART-1-1                                        
   236        236       PART-1-1                                        
   237        237       PART-1-1                                        
   238        238       PART-1-1                                        
   239        239       PART-1-1                                        
   240        240       PART-1-1                                        
   241        241       PART-1-1                                        
   242        242       PART-1-1                                        
   243        243       PART-1-1                                        
   244        244       PART-1-1                                        
   245        245       PART-1-1                                        
   246        246       PART-1-1                                        
   247        247       PART-1-1                                        
   248        248       PART-1-1                                        
   249        249       PART-1-1                                        

LOCAL TO GLOBAL NODE AND ELEMENT MAPS
                                                  Local      Global     
                                                  node       node       
                                                  number     number
  Instance name
  PART-1-1                                         1          1         
  PART-1-1                                         2          2         
  PART-1-1                                         3          3         
  PART-1-1                                         4          4         
  PART-1-1                                         5          5         
  PART-1-1                                         6          6         
  PART-1-1                                         7          7         
  PART-1-1                                         8          8         
  PART-1-1                                         9          9         
  PART-1-1                                         10         10        
  PART-1-1                                         11         11        
  PART-1-1                                         12         12        
  PART-1-1                                         13         13        
  PART-1-1                                         14         14        
  PART-1-1                                         15         15        
  PART-1-1                                         16         16        
  PART-1-1                                         17         17        
  PART-1-1                                         18         18        
  PART-1-1                                         19         19        
  PART-1-1                                         20         20        
[...]
        387      3.0000000E+00  0.0000000E+00  0.0000000E+00
        388      3.0000000E+00  0.0000000E+00  0.0000000E+00
        389      2.6385636E+00 -3.6497545E-02 -2.0811093E-03
        390      2.5772978E+00 -7.8495718E-02  1.1836859E-01
        391      2.3642121E+00 -1.4654885E-01 -6.1361865E-02
        392      2.6418145E+00 -4.1712124E-02 -2.7044627E-02
        393      3.0000000E+00  0.0000000E+00  0.0000000E+00
        394      3.0000000E+00  0.0000000E+00  0.0000000E+00
        395      3.0000000E+00  0.0000000E+00  0.0000000E+00
        396      2.3125473E+00 -2.5298488E-01  2.0453333E-01
        397      2.3626994E+00  7.4805921E-03  2.8368883E-03
        398      3.0000000E+00  0.0000000E+00  0.0000000E+00
        399      2.3215497E+00 -4.4265640E-02 -7.5567784E-03
        400      2.2010772E+00 -7.4251277E-02 -2.5769514E-02
        401      2.2627813E+00 -3.5107823E-02  3.9831631E-03
        402      2.3405452E+00 -1.3164038E-02 -4.8462504E-03
        403      1.6843475E+00 -6.7951555E-02  2.4782719E-03
        404      2.2146382E+00  3.1482322E-02  4.1582054E-02
        405      1.4595194E+00  1.4340159E-02  2.4894868E-02
        406      3.0000000E+00  0.0000000E+00  0.0000000E+00
        407      2.2142832E+00  4.7169878E-02  1.0602718E-02
        409      8.2849192E-01  5.6957735E-02  1.3959552E-02
        410      3.0000000E+00  0.0000000E+00  0.0000000E+00
        411      3.0000000E+00  0.0000000E+00  0.0000000E+00
        412      3.0000000E+00  0.0000000E+00  0.0000000E+00
        413      2.5561151E+00 -1.2396385E-01  1.6936526E-01
        414      3.0000000E+00  0.0000000E+00  0.0000000E+00
        415      2.2636178E+00 -3.3916743E-02  1.4998778E-02
        416      2.3518104E+00 -1.0686711E-02  8.4512917E-03
        417      1.4527066E+00 -4.8751386E-01 -8.0863890E-03
        418      9.7523183E-01 -1.1407961E-01  2.7326714E-02
        419      3.0000000E+00  0.0000000E+00  0.0000000E+00
        420      3.0000000E+00  0.0000000E+00  0.0000000E+00
        421      3.0000000E+00  0.0000000E+00  0.0000000E+00
        422      3.0000000E+00  0.0000000E+00  0.0000000E+00
        423      2.3898665E+00  3.7201538E-02  1.0682672E-03
        424      2.4167246E+00  6.4874765E-02  1.3112183E-02
        425      2.4329562E+00  6.7334788E-02 -1.3347231E-02
        426      3.0000000E+00  0.0000000E+00  0.0000000E+00
        427      3.0000000E+00  0.0000000E+00  0.0000000E+00
        428      2.3889529E+00  3.9252765E-02  7.6336712E-04
        430      5.9158195E-01  3.2162230E-02  3.9731854E-03
        432      2.3380702E+00  3.2681043E-04 -2.4125162E-03
        433      2.3304830E+00  1.8925909E-02 -1.4823558E-02
        434      1.4247821E+00 -6.0055380E-02 -3.2646975E-02
        435      3.0000000E+00  0.0000000E+00  0.0000000E+00
        436      2.2602745E+00  3.6035126E-02 -2.5313635E-02
        437      8.2743662E-01  7.2969755E-02  1.7823619E-02
        438      1.5798330E+00  5.4673831E-03 -3.8801240E-02
        439      8.5270044E-01  6.3158150E-02  6.8838834E-03
        441      7.7555217E-01  3.2187394E-02  7.2833561E-03
        442      7.8620401E-01  4.1971103E-02  1.3641360E-02
        445      1.6208609E+00 -3.8026441E-02 -4.9294120E-02
        446      2.2159892E+00  4.1931473E-02 -8.1894284E-03
        447      1.6242389E+00 -1.2470413E-02 -5.3252938E-02
        448      3.0000000E+00  0.0000000E+00  0.0000000E+00
        450      5.0215285E-01 -7.3010655E-02 -2.3139724E-02
        453      6.8961692E-01 -3.5440003E-02 -4.4483645E-02
        454      6.2037286E-01 -1.6803369E-02 -3.2133522E-02
        457      8.7581730E-01 -1.9428661E-02  2.0690891E-03
        458      3.0000000E+00  0.0000000E+00  0.0000000E+00
        459      2.2496923E+00 -7.2358588E-02  2.9765381E-02
        460      3.0000000E+00  0.0000000E+00  0.0000000E+00
        461      7.1385018E-01  2.2897170E-02  5.5458902E-03
        462      7.1633188E-01  6.7128794E-02  2.6040831E-02
        465      3.0000000E+00  0.0000000E+00  0.0000000E+00
        466      5.4225470E-01  1.8791079E-01 -1.1109982E-03
        469      5.8280869E-01  3.9824208E-01  1.8666843E-01
        470      6.7612517E-01  8.6679903E-03  1.0967941E-02
        471      5.9736661E-01  5.8628738E-02  1.7299226E-02
        473      6.6071603E-01 -1.0178824E-02 -4.1910279E-03
        474      1.0906030E+00  4.5506478E-01  4.4721192E-03
        475      2.1060629E+00 -1.5948407E-01  1.0445600E-01
        478      5.7035941E-01  6.1041755E-02 -8.7175066E-03
        481      6.9886167E-01  7.6679642E-02 -2.7002446E-02
        482      7.1880007E-01  2.4717452E-02 -8.4400701E-03
        484      3.0000000E+00  0.0000000E+00  0.0000000E+00
        485      2.1567171E+00 -6.4675246E-02 -1.3804437E-02
        486      1.2250948E-01  4.8430216E-03  4.6690565E-02
        490      6.8629435E-01 -3.2374569E-02  3.9512675E-02
        491      7.4915950E-01 -5.7423259E-02  4.5583708E-02
        493      3.0000000E+00  0.0000000E+00  0.0000000E+00
        494      3.0000000E+00  0.0000000E+00  0.0000000E+00
        496      1.4950119E+00 -4.3592478E-04  3.2449714E-02
        497      2.2040735E+00 -5.5765635E-02  2.8494864E-02
        498      3.0000000E+00  0.0000000E+00  0.0000000E+00
        499      3.0000000E+00  0.0000000E+00  0.0000000E+00
        501      7.0272627E-01  7.6641377E-02  2.5328653E-02
        502      7.6583834E-01  3.3679990E-02  1.1651954E-02
        503      6.4816800E-01 -4.7205041E-03 -1.3172901E-02
        504      6.6601928E-01  1.0987384E-02 -1.7997612E-02
        507      2.4080593E+00  1.6880579E-02 -1.7460362E-02
        509      7.9520735E-01  2.7253498E-02  5.2428354E-03
        512      1.5235142E+00  7.0651603E-03 -2.4626054E-02
        513      1.0924138E+00 -7.3280481E-02 -3.0811724E-02
        514      3.0000000E+00  0.0000000E+00  0.0000000E+00
        515      2.3268239E+00  7.9068786E-02  2.3666203E-02
        516      3.0000000E+00  0.0000000E+00  0.0000000E+00
        517      3.0000000E+00  0.0000000E+00  0.0000000E+00
        518      1.4776037E+00  2.0360997E-02  1.8324356E-02
        520      5.1190754E-01  3.9448889E-01 -1.4989075E-01
        521      6.2480682E-01  3.1014156E-01 -9.3616010E-03
        525      6.5566757E-01 -7.6968154E-03  8.9395705E-05
        526      7.3473424E-01 -2.6477454E-02  4.6781675E-03
        527      3.0000000E+00  0.0000000E+00  0.0000000E+00
        528      2.2659745E+00  3.5062071E-02  1.4197845E-02
        529      1.4885820E+00 -3.9420709E-01  1.0231936E-01
        530      3.0000000E+00  0.0000000E+00  0.0000000E+00
        531      2.5301653E+00 -4.9357062E-02 -2.0822423E-02
        532      2.2616547E+00 -3.2903879E-02 -1.8537575E-02
        533      2.3485878E+00 -8.6503875E-03 -1.6663821E-02
        536      6.7401391E-01  8.1297887E-02 -1.6363184E-02
        541      2.6204584E+00 -4.0372375E-02 -2.0763592E-01
        542      2.5214729E+00 -1.5772391E-01 -2.2178645E-01
        543      7.0976190E-01 -1.0366121E-02  1.5375082E-02
        544      3.0000000E+00  0.0000000E+00  0.0000000E+00
        545      2.2476194E+00 -4.6690187E-02  1.8735344E-02
        546      3.0000000E+00  0.0000000E+00  0.0000000E+00
        547      3.0000000E+00  0.0000000E+00  0.0000000E+00
        550      2.5349176E+00  9.0456788E-02  2.6195402E-02
        551      1.5647509E+00  5.4373730E-01 -4.7796956E-02
        552      1.5938598E+00  5.7491860E-01  2.3652924E-03
        553      2.0545475E+00  4.8943521E-01  1.5392499E-04
        554      1.4254402E+00  6.2217922E-03  3.9532817E-02
        556      3.0000000E+00  0.0000000E+00  0.0000000E+00
        557      3.0000000E+00  0.0000000E+00  0.0000000E+00
        558      3.0000000E+00  0.0000000E+00  0.0000000E+00
        559      2.1721798E+00 -5.6008188E-02 -7.5324053E-03
        560      3.0000000E+00  0.0000000E+00  0.0000000E+00
        561      2.1682319E+00 -5.7904993E-02  6.1775520E-03
        562      3.0000000E+00  0.0000000E+00  0.0000000E+00
        563      2.3360448E+00  1.6297435E-02  7.6747954E-03
        564      2.2125740E+00  4.7769447E-02 -9.0705399E-03
        565      1.5132667E+00  1.2703430E-02 -2.5173842E-02
        566      7.4531542E-01 -5.9912867E-02 -4.6209630E-02
        567      1.4300042E+00  1.6865837E-02 -6.2505833E-02
        568      2.1487388E+00 -5.9553457E-02  1.4398779E-02
        569      1.4889726E+00  2.5640390E-03 -3.7347345E-02
        571      3.0000000E+00  0.0000000E+00  0.0000000E+00
        572      2.3496957E+00 -6.2823379E-02  2.6453052E-02
        573      2.2405783E+00 -2.9948017E-02  1.4526522E-02
        574      1.5582601E+00  5.7126002E-01  1.5194163E-01
        575      3.0000000E+00  0.0000000E+00  0.0000000E+00
        576      3.0000000E+00  0.0000000E+00  0.0000000E+00
        577      3.0000000E+00  0.0000000E+00  0.0000000E+00
        578      3.0000000E+00  0.0000000E+00  0.0000000E+00
        579      3.0000000E+00  0.0000000E+00  0.0000000E+00
        580      3.0000000E+00  0.0000000E+00  0.0000000E+00
        582      7.8850107E-01 -4.1844662E-02  7.1034085E-03
        583      3.0000000E+00  0.0000000E+00  0.0000000E+00
        584      2.4121743E+00 -3.1788262E-01 -2.2229907E-01
        585      7.7954330E-01 -3.3149117E-02 -5.8098922E-03
        589      3.0000000E+00  0.0000000E+00  0.0000000E+00
        590      3.0000000E+00  0.0000000E+00  0.0000000E+00
        592      7.5541879E-01  3.4015507E-02 -1.2502537E-02
        597      3.0000000E+00  0.0000000E+00  0.0000000E+00
        600      6.9783086E-01 -5.1507725E-01  1.4311173E-01
        601      2.6610111E+00  3.8246148E-01 -2.2355210E-02
        603      1.5459760E+00 -4.4809388E-01 -5.1313643E-02
        604      3.0000000E+00  0.0000000E+00  0.0000000E+00

 MAXIMUM          3.000      0.5749      0.2300    
 AT NODE                 1         552          53

 MINIMUM          0.000     -0.5151     -0.2223    
 AT NODE                 5         600         584
  
  
  
   THE FOLLOWING TABLE IS PRINTED FOR NODES BELONGING TO NODE SET ASSEMBLY_BC-SET-1
  
       NODE FOOT-  RF1          
            NOTE
  
          1     -1.2014227E-01
          2      1.9027514E-02
          3     -7.2152637E-02
          4      2.1957652E-01
          9      1.5832733E-01
         10     -6.0965126E-03
         11     -1.0657989E-01
         12     -1.0849671E-01
         13     -1.3191765E-02
         14      1.9129789E-01
         15      1.4822052E-01
         16     -3.2716726E-02
         17     -9.0260298E-02
         18     -9.6082643E-02
         19     -3.0790002E-02
         20      1.3554190E-01
         21      1.5907096E-01
         22     -6.4472247E-03
         23     -1.4429090E-01
         24     -1.2106956E-01
         25     -1.8362449E-02
         26      1.7334354E-01
         27      1.8325237E-01
         28      5.9781065E-03
         29     -3.9731014E-01
         55     -8.6891263E-02
         56      2.6907145E-03
         57     -1.8797195E-01
         58      3.1038767E-01
         63      1.8961693E-01
         64      3.0718176E-02
         65     -1.1131816E-01
         66     -1.1468307E-01
         67     -4.7611711E-02
         68      2.0027946E-01
         69      1.6149923E-01
         70     -8.4491556E-04
         71     -7.7816479E-02
         72     -1.1227070E-01
         73     -5.2604030E-02
         74      1.2408932E-01
         75      1.7928998E-01
         76      2.3772576E-02
         77     -6.0079354E-02
         78     -1.1009507E-01
         79     -5.4988832E-02
         80      1.6812974E-01
         81      2.4642757E-01
         82     -4.3156442E-02
         83     -1.2311140E-01
        147      6.4218476E-01
        151      1.7408332E-01
        152      2.9499373E-01
        156      1.4024217E+00
        160      3.9077965E-01
        161      6.8580056E-01
        168      1.3921453E+00
        172      4.1212920E-01
        173      7.9951156E-01
        210      6.7738660E-01
        211      3.7055720E-01
        214      6.0549498E-01
        218      8.2538718E-01
        219      4.0451555E-01
        220      6.2608181E-01
        223      6.2733360E-01
        224      3.2228437E-01
        226      1.5592247E+00
        233      1.5461435E-01
        234      2.6834257E-01
        235      2.8416365E-01
        265      5.1800635E-01
        267      3.0758913E-01
        292      2.3171114E-01
        294      2.4440845E-01
        296      4.9510093E-01
        297      1.4030141E-01
        302      3.0613697E-01
        311      3.7992950E-01
        312      1.5582069E+00
        322      1.2043724E-01
        324      6.1340706E-01
        326      2.3038599E-01
        327      1.5594188E-01
        328      3.1068021E-01
        331      2.9169364E-01
        356      3.0385268E-01
        368      4.9098489E-01
        369      1.4572500E+00
        370      3.2631100E-01
        374      4.0756561E-01
        379      3.8211738E-01
        381      7.3582557E-01
        382      1.3888358E+00
        386      1.9197047E-02
        387     -1.5171201E-02
        388      2.0905584E-01
        393      2.6798952E-01
        394      3.7183243E-01
        395      1.6770744E+00
        398      3.0825433E-01
        406      3.6145645E-01
        410      1.9929425E-01
        411      8.6728222E-01
        412      5.4122893E-01
        414      1.9578546E-01
        419      6.4488770E-02
        420      3.5012740E-01
        421      2.2373498E-01
        422      4.8228324E-01
        426      2.1122824E-01
        427      2.8484202E-01
        435      8.1891123E-01
        448      3.7347295E-01
        458      5.3369746E-01
        460      7.8820904E-01
        465      4.0034899E-01
        484      3.8840271E-01
        493      7.1118950E-01
        494      1.5387757E+00
        498      3.4796051E-01
        499      9.2900930E-01
        514      3.7810572E-01
        516      6.8923269E-01
        517      3.8101817E-01
        527      3.2933824E-01
        530      3.1855624E-01
        544      2.9431341E-01
        546      3.1871565E-01
        547      5.7477399E-01
        556      6.7164509E-01
        557      4.1466888E-01
        558      8.7486183E-01
        560      4.3972157E-01
        562      2.9676828E-01
        571      2.7713578E-01
        575      3.9788329E-01
        576      6.0318486E-01
        577      2.4756871E-01
        578      2.8105866E-01
        579      1.3197458E-01
        580      3.6150233E-01
        583      4.0532927E-01
        589      6.9675471E-01
        590      4.0989459E-01
        597      3.6431555E-01
        604      7.2321590E-01

 MAXIMUM          1.677    
 AT NODE               395

 MINIMUM        -0.3973    
 AT NODE                29
  
  
  
   THE FOLLOWING TABLE IS PRINTED FOR NODES BELONGING TO NODE SET ASSEMBLY_BC-SET-2
  
       NODE FOOT-  RF1          
            NOTE
  
          5     -1.2788580E-01
          6      1.4299086E-01
          7      3.1905661E-02
          8      9.8204129E-03
         32     -2.6704520E-01
         33      1.1860083E-01
         34      1.2127509E-01
         35      1.1234832E-01
         36      8.6858668E-03
         37     -1.9759936E-01
         38     -1.4808922E-01
         39      1.1129379E-02
         40      1.3215163E-01
         41      1.1384655E-01
         42      1.3421319E-02
         43     -1.6467000E-01
         44     -1.6978696E-01
         45      4.5163305E-02
         46      1.2204978E-01
         47      1.1297137E-01
         48      7.6818855E-03
         49     -1.8717661E-01
         50      1.0951330E-01
         51     -1.0050849E-01
         52      2.2245886E-02
         59     -4.6146095E-02
         60      8.5010308E-02
         61      5.4528871E-02
         62      1.0610493E-02
         86     -2.1123909E-01
         87      1.9410345E-01
         88      2.9846407E-01
         89      1.0737746E-01
         90     -3.3492910E-02
         91     -2.0724099E-01
         92     -1.3914975E-01
         93      4.8447144E-02
         94      1.2348511E-01
         95      7.1219208E-02
         96      3.8603458E-03
         97     -1.7123997E-01
         98     -1.6526480E-01
         99      8.7818054E-02
        100      1.0557048E-01
        101      1.1645540E-01
        102     -2.6582352E-02
        103     -1.9665591E-01
        104      1.1040432E-01
        105     -1.2703934E-01
        106      5.2482523E-02
        123     -3.9654221E-01
        134     -4.1134021E-01
        146     -3.1456570E-01
        154     -6.5257459E-01
        155     -1.2025815E+00
        162     -1.5883229E-01
        163     -2.3171166E-01
        164     -4.8684889E-01
        177     -3.2123979E-01
        179     -5.2335884E-01
        184     -3.8183138E-01
        185     -7.2885933E-01
        186     -7.2797826E-01
        188     -2.4400888E-01
        190     -1.7991280E-01
        193     -3.1974651E-01
        197     -6.2621930E-01
        199     -2.9463082E-01
        200     -6.4272036E-01
        251     -7.8892365E-01
        252     -3.5891262E-01
        275     -2.1155066E-01
        276     -2.6974058E-01
        284     -5.9543317E-01
        285     -4.0972779E-01
        286     -5.6004372E-01
        317     -8.1993912E-01
        318     -4.0769977E-01
        335     -2.6550417E-01
        336     -3.2030242E-01
        337     -4.5137349E-01
        338     -1.0551205E-01
        350     -4.0866409E-01
        357     -5.7020842E-01
        360     -3.5495951E-01
        361     -6.6590532E-01
        365     -3.3346171E-01
        375     -6.1980734E-01
        384     -1.4573085E+00
        408     -4.2029597E-01
        429     -9.4785736E-02
        431     -3.2946266E-01
        440     -1.6525235E+00
        443     -3.9801087E-01
        444     -8.5343392E-01
        449     -1.8367284E-01
        451     -2.8257617E-01
        452     -5.4329186E-01
        455     -3.0147454E-01
        456     -3.2160839E-01
        463     -2.6400371E-01
        464     -7.1196557E-01
        467     -2.7783353E-01
        468     -4.1816474E-01
        472     -2.7899549E-01
        476     -4.9290083E-01
        477     -1.5009601E-01
        479     -2.8356235E-01
        480     -2.7148113E-01
        483     -3.8060510E-01
        487     -3.3861944E-01
        488      1.2813529E-03
        489     -8.5734716E-01
        492     -5.1815740E-01
        495     -3.8872765E-01
        500     -2.8401329E-01
        505     -1.9159463E-01
        506     -4.4947619E-01
        508     -3.8232116E-01
        510     -6.9177009E-01
        511     -1.5689308E+00
        519     -2.8058900E-01
        522     -2.5630868E-01
        523     -5.3831223E-01
        524     -1.5223538E+00
        534     -6.0071436E-01
        535     -7.7078874E-01
        537     -3.7512818E-01
        538     -7.7115147E-01
        539     -1.5114327E+00
        540     -3.8808448E-01
        548     -1.5513023E+00
        549     -3.8300523E-01
        555     -3.1938556E-01
        570     -6.8231526E-01
        581     -3.8095236E-01
        586     -6.7821505E-01
        587     -7.8199732E-01
        588     -2.9090263E-01
        591     -3.0762432E-01
        593     -7.1706941E-01
        594     -3.8603474E-01
        595     -3.5153722E-01
        596     -6.8874041E-01
        598     -3.9950812E-01
        599     -4.0481125E-01
        602     -4.1037896E-01

 MAXIMUM         0.2985    
 AT NODE                88

 MINIMUM         -1.653    
 AT NODE               440


          THE ANALYSIS HAS BEEN COMPLETED



                              ANALYSIS COMPLETE
                              WITH      3 WARNING MESSAGES ON THE DAT FILE



     JOB TIME SUMMARY
       USER TIME (SEC)      =  0.70000    
       SYSTEM TIME (SEC)    =  0.40000    
       TOTAL CPU TIME (SEC) =   1.1000    
       WALLCLOCK TIME (SEC) =          0
