*Heading
** Job name: sq-8mm_sin-per-4_sin-amp-0.6mm_tet_test Model name: Model-1
** Generated by: Abaqus/CAE 2021
*Preprint, echo=NO, model=NO, history=NO, contact=NO
**
** PARTS
**
*Part, name=Part-1
*End Part
**
**
** ASSEMBLY
**
*Assembly, name=Assembly
**
*Instance, name=Part-1-1, part=Part-1
*Node
1, -20, 4, 0
2, -19.7727, 3.9146, 0
3, -19.5455, 3.831, 0
4, -19.3182, 3.7508, 0
5, -19.0909, 3.6756, 0
6, -18.8636, 3.6071, 0
7, -18.6364, 3.5466, 0
8, -18.4091, 3.4952, 0
9, -18.1818, 3.4542, 0
10, -17.9545, 3.4243, 0
11, -17.7273, 3.4061, 0
12, -17.5, 3.4, 0
13, -17.2727, 3.4061, 0
14, -17.0455, 3.4243, 0
15, -16.8182, 3.4542, 0
16, -16.5909, 3.4952, 0
17, -16.3636, 3.5466, 0
18, -16.1364, 3.6071, 0
19, -15.9091, 3.6756, 0
20, -15.6818, 3.7508, 0
** ... 4191 like lines cut
*Element, type=C3D10H
1, 743, 754, 730, 726, 775, 773, 774, 776, 777, 778
2, 743, 730, 596, 595, 774, 779, 780, 781, 782, 783
3, 759, 256, 724, 353, 786, 784, 785, 787, 788, 789
4, 759, 724, 254, 255, 785, 790, 791, 792, 793, 794
5, 749, 615, 258, 257, 797, 795, 796, 798, 799, 800
6, 746, 724, 68, 69, 803, 801, 802, 804, 805, 806
7, 759, 632, 275, 274, 809, 807, 808, 810, 811, 812
8, 765, 768, 767, 771, 815, 813, 814, 816, 817, 818
9, 741, 193, 551, 552, 821, 819, 820, 822, 823, 824
10, 759, 629, 271, 628, 827, 825, 826, 828, 829, 830
11, 771, 185, 722, 184, 833, 831, 832, 834, 835, 836
12, 761, 287, 288, 719, 839, 837, 838, 840, 841, 842
13, 761, 292, 291, 649, 845, 843, 844, 846, 847, 848
14, 742, 725, 219, 220, 851, 849, 850, 852, 853, 854
15, 772, 754, 720, 725, 857, 855, 856, 858, 859, 860
16, 761, 728, 644, 643, 863, 861, 862, 864, 865, 866
17, 182, 181, 722, 735, 869, 867, 868, 870, 871, 872
18, 182, 722, 183, 735, 868, 873, 874, 870, 872, 875
19, 764, 681, 729, 747, 878, 876, 877, 879, 880, 881
20, 741, 540, 539, 731, 884, 882, 883, 885, 886, 887
** ... 1910 like lines cut
*Nset, nset=Set-1, generate
1, 4211, 1
*Elset, elset=Set-1, generate
1, 1930, 1
** Section: Section-1
*Solid Section, elset=Set-1, controls=EC-1, material=Material-1
,
*End Instance
**
*Nset, nset=bc-set-1, instance=Part-1-1
1, 2, 3, 4, 5, 6, 7, 8, 9, 10, 11, 12, 13, 14, 15, 16
17, 18, 19, 20, 21, 22, 23, 24, 25, 26, 27, 28, 29, 30, 31, 32
33, 34, 35, 36, 37, 38, 39, 40, 41, 42, 43, 44, 45, 46, 47, 48
49, 50, 51, 52, 53, 54, 55, 56, 57, 58, 59, 60, 61, 62, 63, 64
65, 66, 67, 68, 69, 70, 71, 72, 73, 74, 75, 76, 77, 78, 79, 80
81, 82, 83, 84, 85, 86, 87, 88, 89, 90, 91, 92, 93, 94, 95, 96
97, 98, 99, 100, 101, 102, 103, 104, 105, 106, 107, 108, 109, 110, 111, 112
113, 114, 115, 116, 117, 118, 119, 120, 121, 122, 123, 124, 125, 126, 127, 128
129, 130, 131, 132, 133, 134, 135, 136, 137, 138, 139, 140, 141, 142, 143, 144
145, 146, 147, 148, 149, 150, 151, 152, 153, 154, 155, 156, 157, 158, 159, 160
161, 162, 163, 164, 165, 166, 167, 168, 169, 170, 341, 342, 343, 344, 345, 346
347, 359, 360, 361, 362, 363, 364, 365, 366, 367, 368, 369, 370, 371, 372, 373
374, 375, 376, 377, 378, 379, 380, 381, 382, 383, 384, 385, 386, 387, 388, 389
390, 391, 392, 393, 394, 395, 396, 397, 398, 399, 400, 401, 402, 403, 404, 405
406, 407, 408, 409, 410, 411, 412, 413, 414, 415, 416, 417, 418, 419, 420, 421
422, 423, 424, 425, 426, 427, 428, 429, 430, 431, 432, 433, 434, 435, 436, 437
438, 439, 440, 441, 442, 443, 444, 445, 446, 447, 448, 449, 450, 451, 452, 453
454, 455, 456, 457, 458, 459, 460, 461, 462, 463, 464, 465, 466, 467, 468, 469
470, 471, 472, 473, 474, 475, 476, 477, 478, 479, 480, 481, 482, 483, 484, 485
486, 487, 488, 489, 490, 491, 492, 493, 494, 495, 496, 497, 498, 499, 500, 501
** ... 47 like lines cut
*Elset, elset=bc-set-1, instance=Part-1-1
6, 30, 31, 33, 35, 36, 38, 40, 43, 45, 46, 49, 59, 64, 70, 73
79, 81, 83, 85, 87, 88, 89, 90, 92, 93, 94, 96, 97, 99, 105, 106
111, 112, 113, 115, 116, 121, 122, 124, 125, 133, 136, 137, 138, 140, 141, 142
144, 146, 148, 151, 159, 161, 164, 165, 166, 168, 169, 170, 171, 175, 182, 183
188, 189, 190, 191, 194, 195, 196, 197, 199, 203, 206, 213, 214, 215, 220, 221
224, 225, 227, 228, 229, 230, 231, 232, 233, 234, 235, 236, 237, 238, 240, 241
243, 244, 245, 247, 249, 251, 253, 254, 256, 257, 261, 262, 263, 265, 267, 272
273, 274, 277, 281, 283, 284, 286, 288, 289, 290, 291, 292, 294, 295, 296, 297
298, 299, 305, 306, 308, 309, 310, 313, 316, 318, 319, 320, 321, 324, 327, 328
329, 330, 331, 333, 334, 335, 337, 338, 342, 343, 347, 348, 349, 350, 352, 354
355, 361, 364, 365, 366, 367, 370, 372, 379, 380, 382, 383, 386, 388, 393, 395
398, 400, 403, 404, 406, 407, 412, 417, 418, 419, 420, 421, 429, 432, 433, 434
456, 457, 463, 468, 470, 482, 485, 491, 504, 507, 509, 510, 515, 520, 524, 526
529, 530, 531, 533, 539, 545, 548, 549, 550, 551, 554, 557, 559, 561, 562, 564
566, 568, 570, 571, 574, 582, 585, 586, 590, 591, 594, 599, 600, 602, 604, 605
606, 608, 610, 614, 615, 617, 622, 624, 627, 640, 642, 645, 652, 653, 656, 657
660, 662, 663, 665, 666, 667, 669, 670, 674, 677, 681, 682, 683, 685, 688, 689
691, 692, 694, 695, 697, 702, 703, 705, 706, 707, 711, 715, 724, 725, 727, 728
735, 738, 741, 743, 745, 746, 747, 753, 754, 758, 759, 760, 761, 762, 763, 764
765, 766, 768, 769, 771, 773, 774, 775, 777, 779, 781, 783, 787, 790, 791, 792
** ... 33 like lines cut
*Nset, nset=bc-set-2, instance=Part-1-1
171, 172, 173, 174, 175, 176, 177, 178, 179, 180, 181, 182, 183, 184, 185, 186
187, 188, 189, 190, 191, 192, 193, 194, 195, 196, 197, 198, 199, 200, 201, 202
203, 204, 205, 206, 207, 208, 209, 210, 211, 212, 213, 214, 215, 216, 217, 218
219, 220, 221, 222, 223, 224, 225, 226, 227, 228, 229, 230, 231, 232, 233, 234
235, 236, 237, 238, 239, 240, 241, 242, 243, 244, 245, 246, 247, 248, 249, 250
251, 252, 253, 254, 255, 256, 257, 258, 259, 260, 261, 262, 263, 264, 265, 266
267, 268, 269, 270, 271, 272, 273, 274, 275, 276, 277, 278, 279, 280, 281, 282
283, 284, 285, 286, 287, 288, 289, 290, 291, 292, 293, 294, 295, 296, 297, 298
299, 300, 301, 302, 303, 304, 305, 306, 307, 308, 309, 310, 311, 312, 313, 314
315, 316, 317, 318, 319, 320, 321, 322, 323, 324, 325, 326, 327, 328, 329, 330
331, 332, 333, 334, 335, 336, 337, 338, 339, 340, 350, 351, 352, 353, 354, 355
356, 529, 530, 531, 532, 533, 534, 535, 536, 537, 538, 539, 540, 541, 542, 543
544, 545, 546, 547, 548, 549, 550, 551, 552, 553, 554, 555, 556, 557, 558, 559
560, 561, 562, 563, 564, 565, 566, 567, 568, 569, 570, 571, 572, 573, 574, 575
576, 577, 578, 579, 580, 581, 582, 583, 584, 585, 586, 587, 588, 589, 590, 591
592, 593, 594, 595, 596, 597, 598, 599, 600, 601, 602, 603, 604, 605, 606, 607
608, 609, 610, 611, 612, 613, 614, 615, 616, 617, 618, 619, 620, 621, 622, 623
624, 625, 626, 627, 628, 629, 630, 631, 632, 633, 634, 635, 636, 637, 638, 639
640, 641, 642, 643, 644, 645, 646, 647, 648, 649, 650, 651, 652, 653, 654, 655
656, 657, 658, 659, 660, 661, 662, 663, 664, 665, 666, 667, 668, 669, 670, 671
** ... 47 like lines cut
*Elset, elset=bc-set-2, instance=Part-1-1
2, 3, 4, 5, 7, 9, 10, 11, 12, 13, 14, 16, 17, 18, 19, 20
21, 22, 23, 24, 25, 26, 27, 28, 29, 32, 34, 37, 39, 41, 42, 44
47, 48, 50, 51, 52, 53, 54, 55, 56, 57, 58, 60, 61, 62, 63, 65
66, 67, 68, 69, 71, 72, 74, 75, 76, 77, 78, 80, 82, 84, 86, 91
95, 98, 100, 101, 102, 103, 104, 107, 108, 109, 110, 114, 117, 118, 119, 120
127, 128, 129, 130, 131, 132, 134, 135, 139, 143, 145, 147, 150, 152, 154, 155
156, 157, 158, 160, 162, 163, 167, 172, 174, 177, 178, 179, 180, 181, 184, 185
186, 187, 192, 193, 198, 200, 201, 202, 205, 209, 210, 211, 212, 216, 217, 218
219, 222, 223, 239, 243, 246, 248, 250, 252, 255, 258, 259, 260, 264, 266, 268
269, 270, 275, 276, 278, 279, 280, 282, 285, 287, 293, 300, 301, 302, 303, 304
307, 311, 312, 314, 315, 317, 322, 323, 326, 332, 336, 339, 340, 341, 351, 353
356, 357, 358, 359, 360, 362, 363, 368, 369, 371, 373, 374, 375, 376, 377, 378
381, 385, 387, 389, 390, 391, 392, 394, 396, 397, 399, 401, 402, 405, 408, 410
411, 413, 414, 415, 416, 422, 423, 424, 425, 426, 427, 428, 430, 431, 435, 436
437, 438, 439, 440, 441, 442, 444, 445, 446, 447, 448, 449, 450, 451, 452, 453
454, 455, 458, 459, 460, 461, 462, 464, 465, 466, 467, 469, 471, 472, 473, 474
475, 476, 477, 478, 479, 480, 481, 483, 484, 486, 487, 488, 490, 492, 493, 494
495, 496, 497, 498, 499, 500, 501, 502, 503, 505, 506, 508, 511, 512, 513, 514
516, 517, 518, 519, 521, 522, 523, 525, 527, 528, 532, 534, 535, 536, 537, 538
540, 541, 543, 544, 546, 547, 552, 553, 555, 558, 560, 563, 565, 567, 569, 572
** ... 41 like lines cut
*End Assembly
**
** ELEMENT CONTROLS
**
*Section Controls, name=EC-1, hourglass=ENHANCED
1., 1., 1.
**
** MATERIALS
**
*Material, name=Material-1
*Hyperelastic, n=3, ogden
0.4017, 1.3, 0.00295, 5, 0.00981, -2, 0, 0
0,
** ----------------------------------------------------------------
**
** STEP: Step-1
**
*Step, name=Step-1, nlgeom=YES
*Static
1., 1., 1e-05, 1.
**
** BOUNDARY CONDITIONS
**
** Name: BC-1 Type: Displacement/Rotation
*Boundary
bc-set-1, 1, 1, 3
bc-set-1, 2, 6
** Name: BC-2 Type: Symmetry/Antisymmetry/Encastre
*Boundary
bc-set-2, ENCASTRE
**
** OUTPUT REQUESTS
**
*Restart, write, frequency=0
**
** FIELD OUTPUT: F-Output-1
**
*Output, field, variable=PRESELECT
**
** HISTORY OUTPUT: H-Output-1
**
*Output, history, variable=PRESELECT
*NODE PRINT
U
*EL PRINT, position = centroidal
DG
*NODE PRINT, nset = bc-set-1
RF1
*NODE PRINT, nset = bc-set-2
RF1
*End Step