*Heading
** Job name: ShearWavyWidth1_6.25MMDisp_Amp_0.6MM_Prd_4_Width_5_tet_test Model name: Model-1
** Generated by: Abaqus/CAE 2021
*Preprint, echo=NO, model=NO, history=NO, contact=NO
**
** PARTS
**
*Part, name=Part-1
*End Part
**
**
** ASSEMBLY
**
*Assembly, name=Assembly
**
*Instance, name=Part-1-1, part=Part-1
*Node
1, -20, 4, 0
2, -19.6, 3.8508, 0
3, -19.2, 3.7109, 0
4, -18.8, 3.5893, 0
5, -18.4, 3.4934, 0
6, -18, 3.4294, 0
7, -17.6, 3.4012, 0
8, -17.2, 3.4106, 0
9, -16.8, 3.4571, 0
10, -16.4, 3.5377, 0
11, -16, 3.6473, 0
12, -15.6, 3.7791, 0
13, -15.2, 3.9248, 0
14, -14.8, 4.0752, 0
15, -14.4, 4.2209, 0
16, -14, 4.3527, 0
17, -13.6, 4.4623, 0
18, -13.2, 4.5429, 0
19, -12.8, 4.5894, 0
20, -12.4, 4.5988, 0
** ... 46884 like lines cut
*Element, type=C3D4H
1, 6048, 4380, 5610, 5608, 6835, 6833, 6834, 6836, 6837, 6838
2, 5612, 5628, 4418, 4413, 6841, 6839, 6840, 6842, 6843, 6844
3, 6033, 4240, 4269, 4239, 6847, 6845, 6846, 6848, 6849, 6850
4, 5612, 4418, 5628, 5631, 6840, 6839, 6841, 6851, 6852, 6853
5, 1581, 3375, 4346, 1574, 6856, 6854, 6855, 6857, 6858, 6859
6, 5648, 4445, 4449, 4418, 6862, 6860, 6861, 6863, 6864, 6865
7, 4023, 1027, 3929, 3959, 6868, 6866, 6867, 6869, 6870, 6871
8, 5647, 2460, 2362, 4445, 6874, 6872, 6873, 6875, 6876, 6877
9, 5613, 4419, 4451, 4420, 6880, 6878, 6879, 6881, 6882, 6883
10, 5613, 4420, 4451, 5632, 6881, 6883, 6879, 6884, 6885, 6886
11, 5969, 3750, 3779, 5081, 6889, 6887, 6888, 6890, 6891, 6892
12, 5300, 3778, 3777, 5287, 6895, 6893, 6894, 6896, 6897, 6898
13, 5984, 5256, 5322, 3841, 6901, 6899, 6900, 6902, 6903, 6904
14, 6315, 5582, 6830, 6046, 6907, 6905, 6906, 6908, 6909, 6910
15, 5270, 3748, 3777, 5286, 6913, 6911, 6912, 6914, 6915, 6916
16, 5232, 3716, 3658, 3689, 6919, 6917, 6918, 6920, 6921, 6922
17, 5243, 5255, 3693, 3773, 6925, 6923, 6924, 6926, 6927, 6928
18, 5243, 3773, 3774, 5255, 6926, 6929, 6930, 6925, 6927, 6931
19, 6476, 3651, 3675, 5944, 6934, 6932, 6933, 6935, 6936, 6937
20, 5976, 5081, 3778, 5287, 6940, 6938, 6939, 6941, 6942, 6897
** ... 29729 like lines cut
*Nset, nset=Set-1, generate
1, 46904, 1
*Elset, elset=Set-1, generate
1, 29749, 1
** Section: Section-1
*Solid Section, elset=Set-1, controls=EC-1, material=Material-1
,
*End Instance
**
*Nset, nset=RP, instance=Part-1-1, generate
     1,  46904,      1
*Elset, elset=RP, instance=Part-1-1, generate
     1,  29749,      1
*Nset, nset=bc-set-1, instance=Part-1-1
1, 2, 3, 4, 5, 6, 7, 8, 9, 10, 11, 12, 13, 14, 15, 16
17, 18, 19, 20, 21, 22, 23, 24, 25, 26, 27, 28, 29, 30, 31, 32
33, 34, 35, 36, 37, 38, 39, 40, 41, 42, 43, 44, 45, 46, 47, 48
49, 50, 51, 52, 53, 54, 55, 56, 57, 58, 59, 60, 61, 62, 63, 64
65, 66, 67, 68, 69, 70, 71, 72, 73, 74, 75, 76, 77, 78, 79, 80
81, 82, 83, 84, 85, 86, 87, 88, 89, 90, 91, 92, 93, 94, 95, 96
97, 98, 197, 198, 199, 207, 208, 209, 210, 211, 212, 213, 214, 215, 216, 217
218, 219, 220, 221, 222, 223, 224, 225, 226, 227, 228, 229, 230, 231, 232, 233
234, 235, 236, 237, 238, 239, 240, 241, 242, 243, 244, 245, 246, 247, 248, 249
250, 251, 252, 253, 254, 255, 256, 257, 258, 259, 260, 261, 262, 263, 264, 265
266, 267, 268, 269, 270, 271, 272, 273, 274, 275, 276, 277, 278, 279, 280, 281
282, 283, 284, 285, 286, 287, 288, 289, 290, 291, 292, 293, 294, 295, 296, 297
298, 299, 300, 301, 302, 303, 304, 403, 404, 405, 445, 446, 447, 448, 449, 450
451, 452, 453, 454, 455, 456, 457, 458, 459, 460, 461, 462, 463, 464, 465, 466
467, 468, 469, 470, 471, 472, 473, 474, 475, 476, 477, 478, 479, 480, 481, 482
483, 484, 485, 486, 487, 488, 489, 490, 491, 492, 493, 494, 495, 496, 497, 498
499, 500, 501, 502, 503, 504, 505, 506, 507, 508, 509, 510, 511, 512, 513, 514
515, 516, 517, 518, 519, 520, 521, 522, 523, 524, 525, 526, 527, 528, 529, 530
531, 532, 533, 534, 535, 536, 537, 538, 539, 540, 541, 542, 543, 544, 545, 546
547, 548, 549, 550, 551, 552, 553, 554, 555, 556, 557, 558, 559, 560, 561, 562
** ... 101 like lines cut
*Nset, nset=bc-set-2, instance=Part-1-1
99, 100, 101, 102, 103, 104, 105, 106, 107, 108, 109, 110, 111, 112, 113, 114
115, 116, 117, 118, 119, 120, 121, 122, 123, 124, 125, 126, 127, 128, 129, 130
131, 132, 133, 134, 135, 136, 137, 138, 139, 140, 141, 142, 143, 144, 145, 146
147, 148, 149, 150, 151, 152, 153, 154, 155, 156, 157, 158, 159, 160, 161, 162
163, 164, 165, 166, 167, 168, 169, 170, 171, 172, 173, 174, 175, 176, 177, 178
179, 180, 181, 182, 183, 184, 185, 186, 187, 188, 189, 190, 191, 192, 193, 194
195, 196, 202, 203, 204, 305, 306, 307, 308, 309, 310, 311, 312, 313, 314, 315
316, 317, 318, 319, 320, 321, 322, 323, 324, 325, 326, 327, 328, 329, 330, 331
332, 333, 334, 335, 336, 337, 338, 339, 340, 341, 342, 343, 344, 345, 346, 347
348, 349, 350, 351, 352, 353, 354, 355, 356, 357, 358, 359, 360, 361, 362, 363
364, 365, 366, 367, 368, 369, 370, 371, 372, 373, 374, 375, 376, 377, 378, 379
380, 381, 382, 383, 384, 385, 386, 387, 388, 389, 390, 391, 392, 393, 394, 395
396, 397, 398, 399, 400, 401, 402, 408, 409, 410, 1203, 1204, 1205, 1206, 1207, 1208
1209, 1210, 1211, 1212, 1213, 1214, 1215, 1216, 1217, 1218, 1219, 1220, 1221, 1222, 1223, 1224
1225, 1226, 1227, 1228, 1229, 1230, 1231, 1232, 1233, 1234, 1235, 1236, 1237, 1238, 1239, 1240
1241, 1242, 1243, 1244, 1245, 1246, 1247, 1248, 1249, 1250, 1251, 1252, 1253, 1254, 1255, 1256
1257, 1258, 1259, 1260, 1261, 1262, 1263, 1264, 1265, 1266, 1267, 1268, 1269, 1270, 1271, 1272
1273, 1274, 1275, 1276, 1277, 1278, 1279, 1280, 1281, 1282, 1283, 1284, 1285, 1286, 1287, 1288
1289, 1290, 1291, 1292, 1293, 1294, 1295, 1296, 1297, 1298, 1299, 1300, 1301, 1302, 1303, 1304
1305, 1306, 1307, 1308, 1309, 1310, 1311, 1312, 1313, 1314, 1315, 1316, 1317, 1318, 1319, 1320
** ... 101 like lines cut
*End Assembly
**
** ELEMENT CONTROLS
**
*Section Controls, name=EC-1, hourglass=ENHANCED
1., 1., 1.
**
** MATERIALS
**
*Material, name=Material-1
*Hyperelastic, n=3, ogden
0.4017, 1.3, 0.00295, 5, 0.00981, -2, 0, 0
0,
** ----------------------------------------------------------------
**
** STEP: Step-1
**
*Step, name=Step-1, nlgeom=YES
*Static
1., 1., 1e-05, 1.
**
** BOUNDARY CONDITIONS
**
** Name: BC-1 Type: Displacement/Rotation
*Boundary
bc-set-1, 1, 1, 6.25
bc-set-1, 2, 6
** Name: BC-2 Type: Symmetry/Antisymmetry/Encastre
*Boundary
bc-set-2, ENCASTRE
**
** OUTPUT REQUESTS
**
*Restart, write, frequency=0
**
** FIELD OUTPUT: F-Output-1
**
*Output, field, variable=PRESELECT
**
** HISTORY OUTPUT: H-Output-1
**
*Output, history, variable=PRESELECT
*NODE PRINT, nset=RP, frequency=1
U1,U2,U3
*End Step