*Heading
** Job name: sq-8mm_sin-per-2_sin-amp-0.5mm_tet_test Model name: Model-1
** Generated by: Abaqus/CAE 2021
*Preprint, echo=NO, model=NO, history=NO, contact=NO
**
** PARTS
**
*Part, name=Part-1
*End Part
**
**
** ASSEMBLY
**
*Assembly, name=Assembly
**
*Instance, name=Part-1-1, part=Part-1
*Node
1, -20, 4, 0
2, -19.5833, 3.9347, 0
3, -19.1667, 3.8706, 0
4, -18.75, 3.8087, 0
5, -18.3333, 3.75, 0
6, -17.9167, 3.6956, 0
7, -17.5, 3.6464, 0
8, -17.0833, 3.6033, 0
9, -16.6667, 3.567, 0
10, -16.25, 3.5381, 0
11, -15.8333, 3.517, 0
12, -15.4167, 3.5043, 0
13, -15, 3.5, 0
14, -14.5833, 3.5043, 0
15, -14.1667, 3.517, 0
16, -13.75, 3.5381, 0
17, -13.3333, 3.567, 0
18, -12.9167, 3.6033, 0
19, -12.5, 3.6464, 0
20, -12.0833, 3.6956, 0
** ... 2593 like lines cut
*Element, type=C3D4H
1, 2105, 1138, 1519, 1133
2, 2064, 1098, 1102, 1103
3, 2044, 1097, 1102, 2064
4, 2101, 1174, 1169, 2055
5, 2101, 1169, 1175, 1170
6, 1729, 1878, 1370, 1859
7, 2231, 1275, 1276, 1271
8, 1678, 1189, 2119, 2058
9, 2212, 1246, 1247, 1241
10, 2212, 2192, 1246, 1241
11, 2095, 2118, 1617, 1692
12, 2174, 2192, 1241, 1240
13, 2231, 1280, 1276, 1275
14, 2247, 1437, 1484, 1496
15, 2088, 1690, 1594, 1699
16, 2093, 1594, 2089, 2108
17, 2101, 1170, 1164, 1169
18, 2101, 1169, 1164, 2055
19, 1857, 824, 829, 830
20, 2080, 1120, 1118, 1119
** ... 9984 like lines cut
*Nset, nset=Set-1, generate
1, 2613, 1
*Elset, elset=Set-1, generate
1, 10004, 1
** Section: Section-1
*Solid Section, elset=Set-1, controls=EC-1, material=Material-1
,
*End Instance
**
*Nset, nset=bc-set-1, instance=Part-1-1
1, 2, 3, 4, 5, 6, 7, 8, 9, 10, 11, 12, 13, 14, 15, 16
17, 18, 19, 20, 21, 22, 23, 24, 25, 26, 27, 28, 29, 30, 31, 32
33, 34, 35, 36, 37, 38, 39, 40, 41, 42, 43, 44, 45, 46, 47, 48
49, 50, 51, 52, 53, 54, 55, 56, 57, 58, 59, 60, 61, 62, 63, 64
65, 66, 67, 68, 69, 70, 71, 72, 73, 74, 75, 76, 77, 78, 79, 80
81, 82, 83, 84, 85, 86, 87, 88, 89, 90, 91, 92, 93, 94, 189, 190
191, 199, 200, 201, 202, 203, 204, 205, 206, 207, 208, 209, 210, 211, 212, 213
214, 215, 216, 217, 218, 219, 220, 221, 222, 223, 224, 225, 226, 227, 228, 229
230, 231, 232, 233, 234, 235, 236, 237, 238, 239, 240, 241, 242, 243, 244, 245
246, 247, 248, 249, 250, 251, 252, 253, 254, 255, 256, 257, 258, 259, 260, 261
262, 263, 264, 265, 266, 267, 268, 269, 270, 271, 272, 273, 274, 275, 276, 277
278, 279, 280, 281, 282, 283, 284, 285, 286, 287, 288, 289, 290, 291, 292, 387
388, 389, 409, 410, 411, 412, 413, 414, 415, 416, 417, 418, 419, 420, 421, 422
423, 424, 425, 426, 427, 428, 429, 430, 431, 432, 433, 434, 435, 436, 437, 438
439, 440, 441, 442, 443, 444, 445, 446, 447, 448, 449, 450, 451, 452, 453, 454
455, 456, 457, 458, 459, 460, 461, 462, 463, 464, 465, 466, 467, 468, 469, 470
471, 472, 473, 474, 475, 476, 477, 478, 479, 480, 481, 482, 483, 484, 485, 486
487, 488, 489, 490, 491, 492, 493, 494, 495, 496, 497, 498, 499, 500, 501, 502
503, 504, 505, 506, 507, 508, 509, 510, 511, 512, 513, 514, 515, 516, 517, 518
519, 520, 521, 522, 523, 524, 525, 526, 527, 528, 529, 530, 531, 532, 533, 534
** ... 23 like lines cut
*Elset, elset=bc-set-1, instance=Part-1-1
19, 30, 36, 37, 44, 56, 57, 59, 63, 64, 66, 67, 74, 83, 84, 85
101, 111, 112, 113, 114, 115, 116, 119, 121, 125, 141, 142, 154, 155, 156, 158
159, 162, 163, 175, 192, 194, 202, 212, 214, 216, 217, 218, 219, 221, 222, 224
225, 229, 231, 232, 233, 234, 262, 268, 275, 280, 282, 284, 289, 290, 291, 293
295, 298, 300, 301, 304, 305, 308, 309, 312, 314, 315, 316, 320, 321, 322, 326
331, 333, 335, 354, 355, 360, 371, 377, 379, 382, 395, 396, 399, 400, 402, 403
404, 407, 410, 411, 426, 427, 428, 431, 433, 439, 441, 443, 444, 445, 446, 447
448, 450, 451, 452, 453, 454, 455, 456, 457, 458, 461, 464, 465, 466, 467, 470
479, 480, 481, 485, 486, 487, 488, 502, 503, 504, 517, 527, 530, 537, 541, 548
556, 558, 559, 560, 561, 564, 565, 566, 567, 568, 569, 571, 572, 581, 582, 583
586, 587, 591, 592, 593, 594, 601, 604, 610, 618, 619, 620, 621, 623, 624, 625
628, 632, 656, 661, 664, 665, 667, 669, 670, 672, 675, 679, 680, 695, 715, 718
720, 723, 730, 731, 733, 735, 736, 741, 758, 762, 763, 765, 770, 775, 778, 782
787, 792, 793, 794, 795, 797, 801, 802, 803, 810, 811, 831, 839, 843, 844, 845
846, 847, 848, 849, 851, 852, 854, 855, 860, 868, 869, 872, 873, 886, 889, 891
892, 895, 897, 898, 899, 906, 908, 914, 918, 919, 921, 922, 926, 960, 961, 963
966, 972, 973, 974, 978, 986, 992, 1003, 1006, 1009, 1010, 1014, 1015, 1016, 1018, 1019
1022, 1024, 1025, 1028, 1035, 1036, 1043, 1045, 1047, 1048, 1049, 1051, 1055, 1056, 1057, 1067
1085, 1086, 1087, 1088, 1091, 1094, 1095, 1097, 1101, 1103, 1105, 1109, 1122, 1123, 1124, 1132
1134, 1135, 1144, 1145, 1146, 1147, 1150, 1155, 1163, 1175, 1176, 1177, 1178, 1179, 1180, 1181
** ... 132 like lines cut
*Nset, nset=bc-set-2, instance=Part-1-1
95, 96, 97, 98, 99, 100, 101, 102, 103, 104, 105, 106, 107, 108, 109, 110
111, 112, 113, 114, 115, 116, 117, 118, 119, 120, 121, 122, 123, 124, 125, 126
127, 128, 129, 130, 131, 132, 133, 134, 135, 136, 137, 138, 139, 140, 141, 142
143, 144, 145, 146, 147, 148, 149, 150, 151, 152, 153, 154, 155, 156, 157, 158
159, 160, 161, 162, 163, 164, 165, 166, 167, 168, 169, 170, 171, 172, 173, 174
175, 176, 177, 178, 179, 180, 181, 182, 183, 184, 185, 186, 187, 188, 194, 195
196, 293, 294, 295, 296, 297, 298, 299, 300, 301, 302, 303, 304, 305, 306, 307
308, 309, 310, 311, 312, 313, 314, 315, 316, 317, 318, 319, 320, 321, 322, 323
324, 325, 326, 327, 328, 329, 330, 331, 332, 333, 334, 335, 336, 337, 338, 339
340, 341, 342, 343, 344, 345, 346, 347, 348, 349, 350, 351, 352, 353, 354, 355
356, 357, 358, 359, 360, 361, 362, 363, 364, 365, 366, 367, 368, 369, 370, 371
372, 373, 374, 375, 376, 377, 378, 379, 380, 381, 382, 383, 384, 385, 386, 392
393, 394, 879, 880, 881, 882, 883, 884, 885, 886, 887, 888, 889, 890, 891, 892
893, 894, 895, 896, 897, 898, 899, 900, 901, 902, 903, 904, 905, 906, 907, 908
909, 910, 911, 912, 913, 914, 915, 916, 917, 918, 919, 920, 921, 922, 923, 924
925, 926, 927, 928, 929, 930, 931, 932, 933, 934, 935, 936, 937, 938, 939, 940
941, 942, 943, 944, 945, 946, 947, 948, 949, 950, 951, 952, 953, 954, 955, 956
957, 958, 959, 960, 961, 962, 963, 964, 965, 966, 967, 968, 969, 970, 971, 972
973, 974, 975, 976, 977, 978, 979, 980, 981, 982, 983, 984, 985, 986, 987, 988
989, 990, 991, 992, 993, 994, 995, 996, 997, 998, 999, 1000, 1001, 1002, 1003, 1004
** ... 23 like lines cut
*Elset, elset=bc-set-2, instance=Part-1-1
1, 2, 3, 4, 5, 7, 8, 9, 10, 12, 13, 17, 18, 20, 21, 22
23, 31, 32, 33, 34, 39, 40, 41, 42, 45, 46, 47, 48, 49, 50, 51
52, 58, 62, 72, 77, 78, 79, 80, 81, 82, 87, 88, 89, 91, 92, 93
94, 95, 96, 97, 102, 103, 104, 105, 108, 124, 127, 128, 129, 130, 135, 136
143, 144, 145, 146, 164, 165, 167, 169, 172, 173, 176, 177, 181, 182, 184, 185
186, 190, 191, 193, 195, 196, 198, 200, 201, 204, 207, 215, 228, 235, 237, 238
240, 241, 242, 243, 246, 248, 249, 250, 251, 252, 253, 254, 258, 259, 260, 261
265, 272, 274, 276, 279, 281, 283, 287, 288, 294, 296, 306, 307, 310, 311, 313
317, 318, 319, 323, 324, 325, 336, 337, 338, 340, 341, 343, 345, 346, 349, 350
351, 357, 365, 366, 367, 368, 369, 370, 372, 375, 376, 384, 392, 409, 413, 414
415, 416, 418, 421, 422, 429, 430, 432, 462, 471, 472, 473, 474, 475, 476, 477
478, 483, 489, 490, 491, 497, 498, 505, 506, 508, 509, 510, 512, 513, 514, 516
520, 521, 524, 531, 533, 535, 536, 539, 543, 546, 551, 552, 553, 554, 562, 573
579, 580, 590, 595, 597, 598, 599, 606, 607, 608, 609, 613, 616, 617, 622, 630
633, 635, 636, 638, 641, 642, 643, 646, 649, 651, 653, 663, 666, 682, 683, 684
687, 689, 690, 691, 692, 693, 694, 697, 698, 699, 700, 707, 710, 711, 712, 737
739, 747, 748, 749, 750, 752, 759, 760, 761, 772, 773, 777, 779, 780, 784, 786
790, 791, 796, 799, 804, 812, 813, 818, 819, 822, 823, 824, 825, 826, 827, 828
832, 833, 834, 835, 840, 841, 842, 850, 857, 863, 867, 870, 875, 877, 878, 881
885, 893, 896, 904, 907, 913, 920, 923, 935, 939, 941, 942, 945, 950, 951, 955
** ... 132 like lines cut
*End Assembly
**
** ELEMENT CONTROLS
**
*Section Controls, name=EC-1, hourglass=ENHANCED
1., 1., 1.
**
** MATERIALS
**
*Material, name=Material-1
*Hyperelastic, neo hooke
0.001724, 60
** ----------------------------------------------------------------
**
** STEP: Step-1
**
*Step, name=Step-1, nlgeom=YES
*Static
1., 1., 1e-05, 1.
**
** BOUNDARY CONDITIONS
**
** Name: BC-1 Type: Displacement/Rotation
*Boundary
bc-set-1, 1, 1, 3
bc-set-1, 2, 6
** Name: BC-2 Type: Symmetry/Antisymmetry/Encastre
*Boundary
bc-set-2, ENCASTRE
**
** OUTPUT REQUESTS
**
*Restart, write, frequency=0
**
** FIELD OUTPUT: F-Output-1
**
*Output, field, variable=PRESELECT
**
** HISTORY OUTPUT: H-Output-1
**
*Output, history, variable=PRESELECT
*NODE PRINT
U
*EL PRINT, position = centroidal
DG
*NODE PRINT, nset = bc-set-1
RF1
*NODE PRINT, nset = bc-set-2
RF1
*End Step