*Heading
** Job name: sq-6.0003mm_sin-per-3_sin-amp-0.11913mm_tet_test Model name: Model-1
** Generated by: Abaqus/CAE 2021
*Preprint, echo=NO, model=NO, history=NO, contact=NO
**
** PARTS
**
*Part, name=Part-1
*End Part
**
**
** ASSEMBLY
**
*Assembly, name=Assembly
**
*Instance, name=Part-1-1, part=Part-1
*Node
1, -20, 3.0001, 0
2, -19.6491, 3.0198, 0
3, -19.2982, 3.0388, 0
4, -18.9474, 3.0568, 0
5, -18.5965, 3.0733, 0
6, -18.2456, 3.0878, 0
7, -17.8947, 3.0999, 0
8, -17.5439, 3.1092, 0
9, -17.193, 3.1156, 0
10, -16.8421, 3.1189, 0
11, -16.4912, 3.1189, 0
12, -16.1404, 3.1156, 0
13, -15.7895, 3.1092, 0
14, -15.4386, 3.0999, 0
15, -15.0877, 3.0878, 0
16, -14.7368, 3.0733, 0
17, -14.386, 3.0568, 0
18, -14.0351, 3.0388, 0
19, -13.6842, 3.0198, 0
20, -12.9825, 2.9805, 0
** ... 27321 like lines cut
*Element, type=C3D10H
1, 3420, 814, 821, 822, 4229, 4227, 4228, 4230, 4231, 4232
2, 3420, 821, 814, 3398, 4228, 4227, 4229, 4233, 4234, 4235
3, 3436, 2254, 2135, 3412, 4238, 4236, 4237, 4239, 4240, 4241
4, 3055, 1079, 1078, 1085, 4244, 4242, 4243, 4245, 4246, 4247
5, 1351, 2904, 2935, 2903, 4250, 4248, 4249, 4251, 4252, 4253
6, 3055, 1079, 1085, 1086, 4244, 4246, 4245, 4254, 4255, 4256
7, 3099, 1080, 3079, 3098, 4259, 4257, 4258, 4260, 4261, 4262
8, 3810, 3767, 3009, 3768, 4265, 4263, 4264, 4266, 4267, 4268
9, 2802, 3144, 3119, 2373, 4271, 4269, 4270, 4272, 4273, 4274
10, 3079, 1093, 1087, 1086, 4277, 4275, 4276, 4278, 4279, 4280
11, 3118, 2175, 1075, 2177, 4283, 4281, 4282, 4284, 4285, 4286
12, 3461, 1819, 1820, 3460, 4289, 4287, 4288, 4290, 4291, 4292
13, 3733, 1839, 2521, 3410, 4295, 4293, 4294, 4296, 4297, 4298
14, 3733, 1826, 1825, 1839, 4301, 4299, 4300, 4295, 4302, 4303
15, 3733, 1838, 2519, 1825, 4306, 4304, 4305, 4300, 4307, 4308
16, 3483, 3486, 1807, 1806, 4311, 4309, 4310, 4312, 4313, 4314
17, 3508, 1815, 1821, 1822, 4317, 4315, 4316, 4318, 4319, 4320
18, 3556, 1851, 1850, 3557, 4323, 4321, 4322, 4324, 4325, 4326
19, 3931, 3479, 3451, 3477, 4329, 4327, 4328, 4330, 4331, 4332
20, 3553, 2178, 1832, 3578, 4335, 4333, 4334, 4336, 4337, 4338
** ... 16071 like lines cut
*Nset, nset=Set-1, generate
1, 27341, 1
*Elset, elset=Set-1, generate
1, 16091, 1
** Section: Section-1
*Solid Section, elset=Set-1, controls=EC-1, material=Material-1
,
*End Instance
**
*Nset, nset=bc-set-1, instance=Part-1-1
1, 2, 3, 4, 5, 6, 7, 8, 9, 10, 11, 12, 13, 14, 15, 16
17, 18, 19, 20, 21, 22, 23, 24, 25, 26, 27, 28, 29, 30, 31, 32
33, 34, 35, 36, 37, 38, 39, 40, 41, 42, 43, 44, 45, 46, 47, 48
49, 50, 51, 52, 53, 54, 55, 56, 57, 58, 59, 60, 61, 62, 63, 64
65, 66, 67, 68, 69, 70, 71, 72, 73, 74, 75, 76, 77, 78, 79, 80
81, 82, 83, 84, 85, 86, 87, 88, 89, 90, 91, 92, 93, 94, 95, 96
97, 98, 99, 100, 101, 102, 103, 104, 105, 106, 107, 108, 109, 110, 221, 222
223, 224, 225, 235, 236, 237, 238, 239, 240, 241, 242, 243, 244, 245, 246, 247
248, 249, 250, 251, 252, 253, 254, 255, 256, 257, 258, 259, 260, 261, 262, 263
264, 265, 266, 267, 268, 269, 270, 271, 272, 273, 274, 275, 276, 277, 278, 279
280, 281, 282, 283, 284, 285, 286, 287, 288, 289, 290, 291, 292, 293, 294, 295
296, 297, 298, 299, 300, 301, 302, 303, 304, 305, 306, 307, 308, 309, 310, 311
312, 313, 314, 315, 316, 317, 318, 319, 320, 321, 322, 323, 324, 325, 326, 327
328, 329, 330, 331, 332, 333, 334, 335, 336, 337, 338, 339, 340, 341, 342, 343
344, 455, 456, 457, 458, 459, 481, 482, 483, 484, 485, 486, 487, 488, 489, 490
491, 492, 493, 494, 495, 496, 497, 498, 499, 500, 501, 502, 503, 504, 505, 506
507, 508, 509, 510, 511, 512, 513, 514, 515, 516, 517, 518, 519, 520, 521, 522
523, 524, 525, 526, 527, 528, 529, 530, 531, 532, 533, 534, 535, 536, 537, 538
539, 540, 541, 542, 543, 544, 545, 546, 547, 548, 549, 550, 551, 552, 553, 554
555, 556, 557, 558, 559, 560, 561, 562, 563, 564, 565, 566, 567, 568, 569, 570
** ... 224 like lines cut
*Elset, elset=bc-set-1, instance=Part-1-1
1, 2, 4, 6, 7, 10, 11, 90, 94, 95, 97, 98, 99, 101, 152, 157
158, 160, 161, 162, 163, 164, 166, 168, 169, 170, 174, 176, 178, 183, 206, 215
217, 218, 232, 265, 266, 269, 270, 272, 274, 278, 281, 285, 286, 298, 299, 303
311, 314, 334, 335, 340, 341, 342, 347, 348, 349, 350, 355, 357, 359, 360, 362
365, 380, 381, 382, 383, 384, 385, 386, 406, 408, 411, 412, 413, 425, 428, 429
430, 432, 433, 441, 443, 444, 448, 472, 481, 493, 496, 501, 502, 503, 504, 505
507, 508, 509, 510, 513, 514, 515, 519, 529, 530, 532, 538, 539, 540, 542, 543
544, 545, 549, 550, 552, 553, 554, 563, 568, 569, 578, 579, 598, 605, 609, 615
616, 617, 618, 619, 623, 625, 626, 628, 642, 643, 644, 649, 650, 651, 657, 664
665, 666, 667, 670, 671, 672, 673, 675, 676, 677, 679, 681, 694, 695, 696, 697
701, 702, 718, 723, 724, 725, 726, 727, 728, 731, 735, 740, 742, 747, 755, 765
771, 777, 778, 781, 782, 783, 784, 803, 805, 806, 808, 809, 810, 813, 814, 815
820, 821, 830, 831, 832, 841, 844, 845, 846, 847, 848, 849, 850, 860, 862, 865
878, 881, 883, 884, 890, 891, 893, 895, 896, 897, 898, 900, 901, 906, 909, 915
916, 918, 920, 923, 926, 930, 931, 933, 934, 936, 943, 946, 947, 956, 958, 960
966, 967, 968, 969, 970, 971, 972, 980, 983, 989, 993, 994, 998, 1000, 1009, 1013
1023, 1024, 1025, 1026, 1027, 1034, 1046, 1049, 1051, 1054, 1055, 1056, 1057, 1058, 1059, 1060
1061, 1062, 1063, 1065, 1067, 1068, 1071, 1083, 1085, 1086, 1100, 1114, 1118, 1122, 1128, 1130
1132, 1134, 1136, 1137, 1138, 1143, 1144, 1151, 1153, 1154, 1155, 1156, 1157, 1168, 1186, 1187
1188, 1193, 1195, 1196, 1202, 1212, 1217, 1218, 1221, 1223, 1229, 1230, 1231, 1232, 1246, 1249
** ... 216 like lines cut
*Nset, nset=bc-set-2, instance=Part-1-1
111, 112, 113, 114, 115, 116, 117, 118, 119, 120, 121, 122, 123, 124, 125, 126
127, 128, 129, 130, 131, 132, 133, 134, 135, 136, 137, 138, 139, 140, 141, 142
143, 144, 145, 146, 147, 148, 149, 150, 151, 152, 153, 154, 155, 156, 157, 158
159, 160, 161, 162, 163, 164, 165, 166, 167, 168, 169, 170, 171, 172, 173, 174
175, 176, 177, 178, 179, 180, 181, 182, 183, 184, 185, 186, 187, 188, 189, 190
191, 192, 193, 194, 195, 196, 197, 198, 199, 200, 201, 202, 203, 204, 205, 206
207, 208, 209, 210, 211, 212, 213, 214, 215, 216, 217, 218, 219, 220, 228, 229
230, 231, 232, 345, 346, 347, 348, 349, 350, 351, 352, 353, 354, 355, 356, 357
358, 359, 360, 361, 362, 363, 364, 365, 366, 367, 368, 369, 370, 371, 372, 373
374, 375, 376, 377, 378, 379, 380, 381, 382, 383, 384, 385, 386, 387, 388, 389
390, 391, 392, 393, 394, 395, 396, 397, 398, 399, 400, 401, 402, 403, 404, 405
406, 407, 408, 409, 410, 411, 412, 413, 414, 415, 416, 417, 418, 419, 420, 421
422, 423, 424, 425, 426, 427, 428, 429, 430, 431, 432, 433, 434, 435, 436, 437
438, 439, 440, 441, 442, 443, 444, 445, 446, 447, 448, 449, 450, 451, 452, 453
454, 462, 463, 464, 465, 466, 1251, 1252, 1253, 1254, 1255, 1256, 1257, 1258, 1259, 1260
1261, 1262, 1263, 1264, 1265, 1266, 1267, 1268, 1269, 1270, 1271, 1272, 1273, 1274, 1275, 1276
1277, 1278, 1279, 1280, 1281, 1282, 1283, 1284, 1285, 1286, 1287, 1288, 1289, 1290, 1291, 1292
1293, 1294, 1295, 1296, 1297, 1298, 1299, 1300, 1301, 1302, 1303, 1304, 1305, 1306, 1307, 1308
1309, 1310, 1311, 1312, 1313, 1314, 1315, 1316, 1317, 1318, 1319, 1320, 1321, 1322, 1323, 1324
1325, 1326, 1327, 1328, 1329, 1330, 1331, 1332, 1333, 1334, 1335, 1336, 1337, 1338, 1339, 1340
** ... 224 like lines cut
*Elset, elset=bc-set-2, instance=Part-1-1
5, 12, 13, 14, 15, 16, 17, 18, 20, 23, 24, 25, 26, 31, 34, 36
37, 38, 39, 40, 43, 44, 45, 48, 49, 50, 51, 52, 53, 54, 55, 56
59, 60, 61, 62, 63, 64, 66, 67, 73, 74, 75, 76, 77, 78, 82, 84
85, 86, 87, 91, 96, 104, 105, 107, 114, 115, 116, 117, 118, 119, 120, 121
122, 123, 124, 126, 130, 131, 132, 133, 134, 137, 140, 141, 142, 145, 146, 148
151, 181, 193, 196, 203, 208, 212, 222, 223, 224, 225, 226, 228, 235, 236, 237
239, 240, 243, 244, 246, 248, 249, 253, 254, 260, 261, 263, 275, 279, 280, 291
292, 294, 295, 305, 306, 318, 324, 325, 329, 330, 331, 332, 333, 339, 354, 367
368, 369, 370, 373, 379, 388, 391, 392, 393, 396, 398, 400, 401, 402, 403, 404
405, 417, 420, 421, 422, 423, 427, 434, 436, 439, 440, 442, 445, 451, 452, 454
455, 456, 457, 458, 461, 462, 464, 465, 466, 467, 468, 469, 470, 471, 474, 476
477, 478, 479, 486, 492, 494, 498, 499, 500, 512, 524, 546, 560, 566, 571, 572
583, 588, 591, 592, 622, 627, 630, 634, 637, 654, 655, 656, 660, 661, 685, 686
688, 689, 692, 693, 703, 704, 715, 716, 717, 719, 721, 722, 734, 737, 741, 746
748, 749, 750, 751, 754, 756, 757, 759, 761, 763, 766, 767, 768, 769, 770, 773
774, 775, 785, 787, 790, 792, 793, 799, 800, 804, 834, 838, 854, 858, 859, 863
866, 868, 870, 872, 874, 876, 882, 887, 888, 889, 894, 907, 910, 913, 932, 939
940, 941, 942, 950, 954, 955, 959, 964, 973, 976, 978, 979, 984, 985, 987, 990
992, 1001, 1002, 1003, 1004, 1005, 1006, 1008, 1014, 1018, 1019, 1020, 1021, 1028, 1035, 1036
1037, 1040, 1048, 1053, 1079, 1080, 1087, 1088, 1092, 1093, 1094, 1096, 1098, 1101, 1102, 1103
** ... 217 like lines cut
*End Assembly
**
** ELEMENT CONTROLS
**
*Section Controls, name=EC-1, hourglass=ENHANCED
1., 1., 1.
**
** MATERIALS
**
*Material, name=Material-1
*Hyperelastic, n=3, ogden
0.4017, 1.3, 0.00295, 5, 0.00981, -2, 0, 0
0,
** ----------------------------------------------------------------
**
** STEP: Step-1
**
*Step, name=Step-1, nlgeom=YES
*Static
1., 1., 1e-05, 1.
**
** BOUNDARY CONDITIONS
**
** Name: BC-1 Type: Displacement/Rotation
*Boundary
bc-set-1, 1, 1, 3
bc-set-1, 2, 6
** Name: BC-2 Type: Symmetry/Antisymmetry/Encastre
*Boundary
bc-set-2, ENCASTRE
**
** OUTPUT REQUESTS
**
*Restart, write, frequency=0
**
** FIELD OUTPUT: F-Output-1
**
*Output, field, variable=PRESELECT
**
** HISTORY OUTPUT: H-Output-1
**
*Output, history, variable=PRESELECT
*NODE PRINT
U
*EL PRINT, position = centroidal
DG
*EL PRINT, elset = bc-set-1, position = centroidal
S12
*EL PRINT, elset = bc-set-2, position = centroidal
S12
*End Step