*Heading
** Job name: sq-8mm_sin-per-6_sin-amp-1mm_tet_test Model name: Model-1
** Generated by: Abaqus/CAE 2021
*Preprint, echo=NO, model=NO, history=NO, contact=NO
**
** PARTS
**
*Part, name=Part-1
*End Part
**
**
** ASSEMBLY
**
*Assembly, name=Assembly
**
*Instance, name=Part-1-1, part=Part-1
*Node
1, -20, 4, 0
2, -19.5833, 3.6173, 0
3, -19.1667, 3.2929, 0
4, -18.75, 3.0761, 0
5, -18.3333, 3, 0
6, -17.9167, 3.0761, 0
7, -17.5, 3.2929, 0
8, -17.0833, 3.6173, 0
9, -16.25, 4.3827, 0
10, -15.8333, 4.7071, 0
11, -15.4167, 4.9239, 0
12, -15, 5, 0
13, -14.5833, 4.9239, 0
14, -14.1667, 4.7071, 0
15, -13.75, 4.3827, 0
16, -12.9167, 3.6173, 0
17, -12.5, 3.2929, 0
18, -12.0833, 3.0761, 0
19, -11.6667, 3, 0
20, -11.25, 3.0761, 0
** ... 2584 like lines cut
*Element, type=C3D4H
1, 2064, 1489, 1445, 2050
2, 2064, 1489, 1522, 1443
3, 2483, 2156, 2133, 2492
4, 2532, 1825, 1826, 2348
5, 1775, 2354, 2355, 1723
6, 2305, 1667, 1589, 2304
7, 2025, 1049, 1362, 1050
8, 2082, 2100, 1105, 1110
9, 1909, 965, 961, 960
10, 1777, 1724, 1731, 2545
11, 1041, 1036, 1037, 1770
12, 2034, 1300, 655, 2014
13, 2378, 2299, 2540, 1907
14, 1941, 324, 323, 1627
15, 1777, 2545, 2386, 2543
16, 2315, 2016, 693, 692
17, 2532, 2353, 2352, 2541
18, 2532, 2352, 2347, 2541
19, 1777, 1731, 2386, 2545
20, 1775, 2355, 1724, 1723
** ... 9982 like lines cut
*Nset, nset=Set-1, generate
1, 2604, 1
*Elset, elset=Set-1, generate
1, 10002, 1
** Section: Section-1
*Solid Section, elset=Set-1, controls=EC-1, material=Material-1
,
*End Instance
**
*Nset, nset=bc-set-1, instance=Part-1-1
1, 2, 3, 4, 5, 6, 7, 8, 9, 10, 11, 12, 13, 14, 15, 16
17, 18, 19, 20, 21, 22, 23, 24, 25, 26, 27, 28, 29, 30, 31, 32
33, 34, 35, 36, 37, 38, 39, 40, 41, 42, 43, 44, 45, 46, 47, 48
49, 50, 51, 52, 53, 54, 55, 56, 57, 58, 59, 60, 61, 62, 63, 64
65, 66, 67, 68, 69, 70, 71, 72, 73, 74, 75, 76, 77, 78, 79, 80
81, 82, 83, 84, 85, 86, 173, 174, 175, 176, 177, 178, 179, 180, 181, 182
183, 199, 200, 201, 202, 203, 204, 205, 206, 207, 208, 209, 210, 211, 212, 213
214, 215, 216, 217, 218, 219, 220, 221, 222, 223, 224, 225, 226, 227, 228, 229
230, 231, 232, 233, 234, 235, 236, 237, 238, 239, 240, 241, 242, 243, 244, 245
246, 247, 248, 249, 250, 251, 252, 253, 254, 255, 256, 257, 258, 259, 260, 261
262, 263, 264, 265, 266, 267, 268, 269, 270, 271, 272, 273, 274, 275, 276, 277
278, 279, 280, 281, 282, 283, 284, 371, 372, 373, 374, 375, 376, 377, 378, 379
380, 381, 409, 410, 411, 412, 413, 414, 415, 416, 417, 418, 419, 420, 421, 422
423, 424, 425, 426, 427, 428, 429, 430, 431, 432, 433, 434, 435, 436, 437, 438
439, 440, 441, 442, 443, 444, 445, 446, 447, 448, 449, 450, 451, 452, 453, 454
455, 456, 457, 458, 459, 460, 461, 462, 463, 464, 465, 466, 467, 468, 469, 470
471, 472, 473, 474, 475, 476, 477, 478, 479, 480, 481, 482, 483, 484, 485, 486
487, 488, 489, 490, 491, 492, 493, 494, 495, 496, 497, 498, 499, 500, 501, 502
503, 504, 505, 506, 507, 508, 509, 510, 511, 512, 513, 514, 515, 516, 517, 518
519, 520, 521, 522, 523, 524, 525, 526, 527, 528, 529, 530, 531, 532, 533, 534
** ... 23 like lines cut
*Elset, elset=bc-set-1, instance=Part-1-1
12, 16, 28, 54, 55, 67, 81, 84, 96, 118, 123, 134, 136, 140, 143, 150
162, 164, 172, 175, 180, 181, 196, 211, 212, 213, 215, 219, 222, 223, 227, 232
240, 241, 243, 245, 246, 248, 251, 252, 255, 260, 261, 265, 266, 267, 269, 270
272, 284, 292, 301, 304, 311, 317, 318, 319, 330, 333, 335, 341, 355, 356, 362
365, 366, 367, 369, 371, 372, 373, 374, 375, 376, 377, 378, 379, 384, 389, 390
391, 393, 394, 398, 407, 419, 421, 423, 424, 436, 441, 442, 444, 455, 460, 462
464, 472, 474, 479, 481, 483, 485, 486, 489, 493, 494, 495, 502, 534, 536, 538
540, 541, 546, 547, 550, 551, 553, 563, 564, 569, 570, 571, 573, 574, 575, 577
591, 602, 605, 607, 609, 616, 618, 623, 633, 644, 647, 652, 654, 655, 657, 659
670, 676, 678, 681, 682, 683, 689, 690, 691, 692, 695, 698, 699, 700, 702, 703
704, 705, 706, 708, 710, 712, 713, 719, 720, 721, 722, 723, 724, 726, 727, 728
729, 730, 731, 732, 738, 742, 743, 747, 748, 750, 753, 755, 760, 763, 764, 765
767, 768, 769, 770, 775, 779, 782, 784, 785, 788, 791, 792, 797, 800, 804, 805
816, 825, 826, 828, 831, 834, 835, 836, 837, 838, 840, 841, 842, 843, 845, 853
855, 856, 857, 858, 868, 876, 882, 883, 884, 893, 894, 895, 896, 897, 898, 916
918, 919, 920, 922, 923, 924, 925, 927, 930, 933, 937, 938, 939, 941, 944, 947
953, 957, 958, 961, 962, 963, 964, 965, 967, 968, 970, 971, 972, 973, 974, 975
976, 977, 978, 979, 981, 984, 985, 987, 988, 989, 991, 995, 999, 1001, 1002, 1003
1004, 1006, 1008, 1009, 1010, 1012, 1018, 1021, 1022, 1023, 1025, 1027, 1035, 1036, 1038, 1039
1041, 1044, 1047, 1048, 1068, 1078, 1079, 1082, 1083, 1086, 1090, 1093, 1094, 1095, 1103, 1104
** ... 137 like lines cut
*Nset, nset=bc-set-2, instance=Part-1-1
87, 88, 89, 90, 91, 92, 93, 94, 95, 96, 97, 98, 99, 100, 101, 102
103, 104, 105, 106, 107, 108, 109, 110, 111, 112, 113, 114, 115, 116, 117, 118
119, 120, 121, 122, 123, 124, 125, 126, 127, 128, 129, 130, 131, 132, 133, 134
135, 136, 137, 138, 139, 140, 141, 142, 143, 144, 145, 146, 147, 148, 149, 150
151, 152, 153, 154, 155, 156, 157, 158, 159, 160, 161, 162, 163, 164, 165, 166
167, 168, 169, 170, 171, 172, 186, 187, 188, 189, 190, 191, 192, 193, 194, 195
196, 285, 286, 287, 288, 289, 290, 291, 292, 293, 294, 295, 296, 297, 298, 299
300, 301, 302, 303, 304, 305, 306, 307, 308, 309, 310, 311, 312, 313, 314, 315
316, 317, 318, 319, 320, 321, 322, 323, 324, 325, 326, 327, 328, 329, 330, 331
332, 333, 334, 335, 336, 337, 338, 339, 340, 341, 342, 343, 344, 345, 346, 347
348, 349, 350, 351, 352, 353, 354, 355, 356, 357, 358, 359, 360, 361, 362, 363
364, 365, 366, 367, 368, 369, 370, 384, 385, 386, 387, 388, 389, 390, 391, 392
393, 394, 839, 840, 841, 842, 843, 844, 845, 846, 847, 848, 849, 850, 851, 852
853, 854, 855, 856, 857, 858, 859, 860, 861, 862, 863, 864, 865, 866, 867, 868
869, 870, 871, 872, 873, 874, 875, 876, 877, 878, 879, 880, 881, 882, 883, 884
885, 886, 887, 888, 889, 890, 891, 892, 893, 894, 895, 896, 897, 898, 899, 900
901, 902, 903, 904, 905, 906, 907, 908, 909, 910, 911, 912, 913, 914, 915, 916
917, 918, 919, 920, 921, 922, 923, 924, 925, 926, 927, 928, 929, 930, 931, 932
933, 934, 935, 936, 937, 938, 939, 940, 941, 942, 943, 944, 945, 946, 947, 948
949, 950, 951, 952, 953, 954, 955, 956, 957, 958, 959, 960, 961, 962, 963, 964
** ... 23 like lines cut
*Elset, elset=bc-set-2, instance=Part-1-1
7, 8, 9, 11, 14, 70, 72, 86, 87, 93, 112, 114, 117, 137, 141, 147
149, 155, 156, 157, 159, 161, 163, 166, 169, 174, 179, 186, 192, 195, 197, 198
200, 201, 202, 203, 204, 206, 207, 208, 210, 214, 216, 217, 221, 225, 229, 234
235, 238, 239, 244, 249, 253, 254, 257, 262, 263, 268, 274, 277, 279, 280, 281
282, 283, 285, 286, 287, 289, 294, 297, 298, 300, 302, 303, 306, 310, 314, 320
327, 329, 331, 332, 336, 337, 339, 340, 342, 344, 345, 347, 349, 352, 353, 357
358, 359, 361, 363, 368, 370, 380, 383, 385, 387, 388, 392, 400, 403, 404, 405
406, 411, 412, 416, 420, 425, 427, 428, 432, 433, 434, 435, 437, 438, 439, 440
446, 448, 449, 450, 453, 454, 456, 457, 458, 465, 466, 469, 470, 471, 473, 475
476, 477, 478, 482, 484, 487, 488, 490, 492, 496, 498, 499, 500, 505, 506, 508
509, 513, 514, 516, 520, 521, 526, 527, 528, 529, 530, 533, 543, 545, 548, 549
552, 555, 556, 557, 559, 567, 572, 576, 579, 580, 581, 583, 584, 585, 586, 587
588, 589, 592, 598, 601, 603, 604, 606, 610, 611, 612, 613, 615, 617, 619, 622
624, 625, 626, 627, 628, 632, 637, 641, 649, 653, 658, 663, 664, 665, 666, 668
672, 673, 677, 680, 686, 688, 694, 696, 697, 701, 707, 709, 711, 714, 715, 717
733, 745, 746, 754, 757, 759, 766, 776, 777, 778, 780, 783, 786, 787, 796, 803
806, 807, 808, 811, 812, 813, 814, 819, 821, 823, 830, 833, 846, 847, 849, 850
852, 859, 860, 861, 862, 863, 865, 866, 867, 870, 871, 873, 875, 877, 878, 879
880, 890, 891, 892, 904, 910, 911, 912, 913, 921, 926, 931, 932, 934, 935, 943
946, 948, 949, 950, 951, 952, 954, 955, 956, 969, 982, 983, 990, 993, 994, 997
** ... 139 like lines cut
*End Assembly
**
** ELEMENT CONTROLS
**
*Section Controls, name=EC-1, hourglass=ENHANCED
1., 1., 1.
**
** MATERIALS
**
*Material, name=Material-1
*Hyperelastic, neo hooke
0.002, 300
** ----------------------------------------------------------------
**
** STEP: Step-1
**
*Step, name=Step-1, nlgeom=YES
*Static
1., 1., 1e-05, 1.
**
** BOUNDARY CONDITIONS
**
** Name: BC-1 Type: Displacement/Rotation
*Boundary
bc-set-1, 1, 1, 3
bc-set-1, 2, 6
** Name: BC-2 Type: Symmetry/Antisymmetry/Encastre
*Boundary
bc-set-2, ENCASTRE
**
** OUTPUT REQUESTS
**
*Restart, write, frequency=0
**
** FIELD OUTPUT: F-Output-1
**
*Output, field, variable=PRESELECT
**
** HISTORY OUTPUT: H-Output-1
**
*Output, history, variable=PRESELECT
*NODE PRINT
U
*EL PRINT, position = centroidal
DG
*NODE PRINT, nset = bc-set-1
RF1
*NODE PRINT, nset = bc-set-2
RF1
*End Step