*Heading
** Job name: ShearWavy_6.25MMDisp_Amp_0 Model name: Model-1
** Generated by: Abaqus/CAE 2021
*Preprint, echo=NO, model=NO, history=NO, contact=NO
**
** PARTS
**
*Part, name=Part-1
*End Part
**
**
** ASSEMBLY
**
*Assembly, name=Assembly
**
*Instance, name=Part-1-1, part=Part-1
*Node
1, -20, 4, 0
2, -6.6667, 4, 0
3, 6.6667, 4, 0
4, 20, 4, 0
5, 20, -4, 0
6, 20, -1.3333, 0
7, 20, 1.3333, 0
8, -20, -4, 0
9, -6.6667, -4, 0
10, 6.6667, -4, 0
11, -20, -1.3333, 0
12, -20, 1.3333, 0
13, -20, 4, 7.5
14, -6.6667, 4, 7.5
15, 6.6667, 4, 7.5
16, 20, 4, 7.5
17, 20, -4, 7.5
18, 20, -1.3333, 7.5
19, 20, 1.3333, 7.5
20, -20, -4, 7.5
** ... 51597 like lines cut
*Element, type=C3D4H
1, 6583, 1027, 2511, 2513, 7078, 7076, 7077, 7079, 7080, 7081
2, 5777, 5139, 5136, 5918, 7084, 7082, 7083, 7085, 7086, 7087
3, 6739, 6497, 6321, 6481, 7090, 7088, 7089, 7091, 7092, 7093
4, 5777, 5140, 5139, 5466, 7095, 7094, 7084, 7096, 7097, 7098
5, 5932, 5942, 5477, 5138, 7101, 7099, 7100, 7102, 7103, 7104
6, 4813, 3511, 6090, 3545, 7107, 7105, 7106, 7108, 7109, 7110
7, 6516, 5499, 5957, 6329, 7113, 7111, 7112, 7114, 7115, 7116
8, 6716, 5126, 4364, 5909, 7119, 7117, 7118, 7120, 7121, 7122
9, 6643, 5894, 5456, 6489, 7125, 7123, 7124, 7126, 7127, 7128
10, 6467, 5434, 5435, 6215, 7131, 7129, 7130, 7132, 7133, 7134
11, 5868, 4296, 5426, 5856, 7137, 7135, 7136, 7138, 7139, 7140
12, 5868, 4312, 4297, 5882, 7143, 7141, 7142, 7144, 7145, 7146
13, 6465, 5867, 5427, 5868, 7149, 7147, 7148, 7150, 7151, 7152
14, 6465, 6639, 5867, 5868, 7154, 7153, 7149, 7150, 7155, 7151
15, 6381, 4446, 5479, 6403, 7158, 7156, 7157, 7159, 7160, 7161
16, 6814, 6405, 6404, 6861, 7164, 7162, 7163, 7165, 7166, 7167
17, 6618, 6194, 6281, 6282, 7170, 7168, 7169, 7171, 7172, 7173
18, 6292, 5740, 5744, 6299, 7176, 7174, 7175, 7177, 7178, 7179
19, 6775, 6154, 6158, 6297, 7182, 7180, 7181, 7183, 7184, 7185
20, 6298, 5742, 5739, 5737, 7188, 7186, 7187, 7189, 7190, 7191
** ... 35152 like lines cut
*Nset, nset=Set-1, generate
1, 51617, 1
*Elset, elset=Set-1, generate
1, 35172, 1
** Section: Section-1
*Solid Section, elset=Set-1, controls=EC-1, material=Material-1
,
*End Instance
**
*Nset, nset=bc-set-1, instance=Part-1-1
1, 2, 3, 4, 13, 14, 15, 16, 29, 30, 31, 32, 33, 34, 35, 36
37, 38, 39, 40, 41, 42, 43, 76, 77, 78, 79, 80, 81, 82, 83, 84
85, 86, 87, 88, 89, 90, 112, 113, 114, 115, 116, 117, 118, 119, 120, 121
122, 123, 124, 125, 126, 131, 132, 133, 134, 135, 136, 137, 138, 139, 140, 141
142, 143, 144, 145, 178, 179, 180, 181, 182, 183, 184, 185, 186, 187, 188, 189
190, 191, 192, 212, 213, 214, 215, 216, 217, 218, 219, 220, 221, 222, 223, 224
225, 226, 229, 230, 231, 232, 233, 234, 235, 236, 237, 238, 239, 240, 241, 242
243, 244, 245, 246, 247, 248, 249, 250, 251, 252, 253, 254, 255, 256, 257, 258
259, 260, 1309, 1310, 1311, 1312, 1313, 1314, 1315, 1316, 1317, 1318, 1319, 1320, 1321, 1322
1323, 1324, 1325, 1326, 1327, 1328, 1329, 1330, 1331, 1332, 1333, 1334, 1335, 1336, 1337, 1338
1339, 1340, 1341, 1342, 1343, 1344, 1345, 1346, 1347, 1348, 1349, 1350, 1351, 1352, 1353, 1354
1355, 1356, 1357, 1358, 1359, 1360, 1361, 1362, 1363, 1364, 1365, 1366, 1367, 1368, 1369, 1370
1371, 1372, 1373, 1374, 1375, 1376, 1377, 1378, 1379, 1380, 1381, 1382, 1383, 1384, 1385, 1386
1387, 1388, 1389, 1390, 1391, 1392, 1393, 1394, 1395, 1396, 1397, 1398, 1399, 1400, 1401, 1402
1403, 1404, 1405, 1406, 1407, 1408, 1409, 1410, 1411, 1412, 1413, 1414, 1415, 1416, 1417, 1418
1419, 1420, 1421, 1422, 1423, 1424, 1425, 1426, 1427, 1428, 1429, 1430, 1431, 1432, 1433, 1434
1435, 1436, 1437, 1438, 1439, 1440, 1441, 1442, 1443, 1444, 1445, 1446, 1447, 1448, 1449, 1450
1451, 1452, 1453, 1454, 1455, 1456, 1457, 1458, 1459, 1460, 1461, 1462, 1463, 1464, 1465, 1466
1467, 1468, 1469, 1470, 1471, 1472, 1473, 1474, 1475, 1476, 1477, 1478, 1479, 1480, 1481, 1482
1483, 1484, 1485, 1486, 1487, 1488, 1489, 1490, 1491, 1492, 1493, 1494, 1495, 1496, 1497, 1498
** ... 111 like lines cut
*Nset, nset=bc-set-2, instance=Part-1-1
5, 8, 9, 10, 17, 20, 21, 22, 44, 45, 46, 47, 48, 49, 50, 51
52, 53, 54, 55, 56, 57, 58, 59, 60, 61, 62, 63, 64, 65, 66, 67
68, 69, 70, 71, 72, 73, 91, 92, 93, 94, 95, 96, 97, 98, 99, 100
101, 102, 103, 104, 105, 146, 147, 148, 149, 150, 151, 152, 153, 154, 155, 156
157, 158, 159, 160, 161, 162, 163, 164, 165, 166, 167, 168, 169, 170, 171, 172
173, 174, 175, 193, 194, 195, 196, 197, 198, 199, 200, 201, 202, 203, 204, 205
206, 207, 261, 262, 263, 264, 265, 266, 267, 268, 285, 286, 287, 288, 289, 290
291, 292, 293, 294, 295, 296, 297, 298, 299, 300, 301, 302, 303, 304, 305, 306
307, 308, 1804, 1805, 1806, 1807, 1808, 1809, 1810, 1811, 1812, 1813, 1814, 1815, 1816, 1817
1818, 1819, 1820, 1821, 1822, 1823, 1824, 1825, 1826, 1827, 1828, 1829, 1830, 1831, 1832, 1833
1834, 1835, 1836, 1837, 1838, 1839, 1840, 1841, 1842, 1843, 1844, 1845, 1846, 1847, 1848, 1849
1850, 1851, 1852, 1853, 1854, 1855, 1856, 1857, 1858, 1859, 1860, 1861, 1862, 1863, 1864, 1865
1866, 1867, 1868, 1869, 1870, 1871, 1872, 1873, 1874, 1875, 1876, 1877, 1878, 1879, 1880, 1881
1882, 1883, 1884, 1885, 1886, 1887, 1888, 1889, 1890, 1891, 1892, 1893, 1894, 1895, 1896, 1897
1898, 1899, 1900, 1901, 1902, 1903, 1904, 1905, 1906, 1907, 1908, 1909, 1910, 1911, 1912, 1913
1914, 1915, 1916, 1917, 1918, 1919, 1920, 1921, 1922, 1923, 1924, 1925, 1926, 1927, 1928, 1929
1930, 1931, 1932, 1933, 1934, 1935, 1936, 1937, 1938, 1939, 1940, 1941, 1942, 1943, 1944, 1945
1946, 1947, 1948, 1949, 1950, 1951, 1952, 1953, 1954, 1955, 1956, 1957, 1958, 1959, 1960, 1961
1962, 1963, 1964, 1965, 1966, 1967, 1968, 1969, 1970, 1971, 1972, 1973, 1974, 1975, 1976, 1977
1978, 1979, 1980, 1981, 1982, 1983, 1984, 1985, 1986, 1987, 1988, 1989, 1990, 1991, 1992, 1993
** ... 111 like lines cut
*End Assembly
**
** ELEMENT CONTROLS
**
*Section Controls, name=EC-1, hourglass=ENHANCED
1., 1., 1.
**
** MATERIALS
**
*Material, name=Material-1
*Hyperelastic, n=3, ogden
0.4017, 1.3, 0.00295, 5, 0.00981, -2, 0, 0
0,
** ----------------------------------------------------------------
**
** STEP: Step-1
**
*Step, name=Step-1, nlgeom=YES
*Static
1., 1., 1e-05, 1.
**
** BOUNDARY CONDITIONS
**
** Name: BC-1 Type: Displacement/Rotation
*Boundary
bc-set-1, 1, 1, 6.25
bc-set-1, 2, 6
** Name: BC-2 Type: Symmetry/Antisymmetry/Encastre
*Boundary
bc-set-2, ENCASTRE
**
** OUTPUT REQUESTS
**
*Restart, write, frequency=0
**
** FIELD OUTPUT: F-Output-1
**
*Output, field, variable=PRESELECT
**
** HISTORY OUTPUT: H-Output-1
**
*Output, history, variable=PRESELECT
*End Step
