1

   Abaqus 2021                                  Date 20-Jul-2023   Time 13:42:36
   For use by UNIVERSITY OF MICHIGAN under license from Dassault Systemes or its subsidiary.



                         The Abaqus Software is a product of:

                           Dassault Systemes SIMULIA Corp.
                           1301 Atwood Avenue, Suite 101W
                              Johnston, RI 02919, USA
 


                   The Abaqus Software is available only under license
                   from Dassault Systemes or its subsidiary and may be
                   used or reproduced only in accordance with the terms
                   of such license.
 
                          On machine ME-ESTRADALAB04 
                          you are authorized to run
                          Abaqus/Standard until 31-Jul-2024

                          Your site id is: 200000000004058 


 
                    For assistance or any other information you may
                    obtain contact information for your local office
                    from the world wide web at:

                      http://www.3ds.com/products/simulia/locations/

 
                * * * * * * * * * * * * * * * * * * * * * * * * * * * * * * 
                *                                                         * 
                *                   *****************                     * 
                *                   *  N O T I C E  *                     * 
                *                   *****************                     * 
                *                                                         * 
                *                                                         * 
                *                       Abaqus 2021                       * 
                *                                                         * 
                *          BUILD ID: 2020_03_06-09.50.37 167380           * 
                *                                                         * 
                *                                                         * 
                *  Please make sure you are using                         * 
                *  release Abaqus 2021 manuals                            * 
                *  plus the notes accompanying this release.              * 
                *                                                         * 
                *                                                         * 
                *                                                         * 
                *                                                         * 
                *                                                         * 
                *   This program may not be used for commercial purposes  * 
                *           without payment of a commercial fee.          * 
                *                                                         * 
                * * * * * * * * * * * * * * * * * * * * * * * * * * * * * * 


 



     PROCESSING PART, INSTANCE, AND ASSEMBLY INFORMATION
   *******************************************************


     END PROCESSING PART, INSTANCE, AND ASSEMBLY INFORMATION
   ***********************************************************




     OPTIONS BEING PROCESSED
   ***************************


  *Heading
  *Node
  *Element, type=C3D4H
  *Nset, nset=ASSEMBLY_PART-1-1_SET-1
  *Elset, elset=ASSEMBLY_PART-1-1_SET-1
  *Nset, nset=ASSEMBLY_BC-SET-1
  *Nset, nset=ASSEMBLY_BC-SET-2
  *Elset, elset=ASSEMBLY_BC-SET-1
  *Elset, elset=ASSEMBLY_BC-SET-2
  *material, name=MATERIAL-1
  *hyperelastic, neohooke
  *solidsection, elset=ASSEMBLY_PART-1-1_SET-1, controls=EC-1, material=MATERIAL-1
  *sectioncontrols, name=EC-1, hourglass=ENHANCED

 ***WARNING: THE PARAMETER HOURGLASS = ENHANCED ON THE SECTION CONTROLS OPTION 
             IS RELEVANT FOR THESE ELEMENTS: C3D8R, CAX4R, CGAX4R, CPEG4R, 
             CPE4R, CPS4R, M3D4R, S4R, SC8R AND THEIR HYBRID, THERMAL AND 
             PRESSURE COUNTERPARTS WHEREVER APPLICABLE. IT IS ALSO RELEVANT FOR 
             ALL TYPES OF MODIFIED TRIANGULAR AND TETRAHEDRAL ELEMENTS. THIS 
             WARNING CAN BE IGNORED IF THE FEATURE IS APPLIED TO THESE ELEMENT 
             TYPES ONLY.
  *solidsection, elset=ASSEMBLY_PART-1-1_SET-1, controls=EC-1, material=MATERIAL-1
  *boundary
  *boundary
  *boundary
  *boundary
  *output, field, variable=PRESELECT
  *output, history, variable=PRESELECT
  *output, field, variable=PRESELECT
  *output, history, variable=PRESELECT
  *output, field, variable=PRESELECT
  *output, history, variable=PRESELECT

 ***NOTE: C3D10HS AND HYBRID TETRAHEDRAL ELEMENTS WILL ENFORCE VOLUMETRIC 
          CONTINUITY ACROSS MATERIAL BOUNDARIES. IN ORDER TO ALLOW 
          DISCONTINUITIES IN THE VOLUMETRIC FIELD USE *TIE.
  *Step, name=Step-1, nlgeom=YES
  *output, field, variable=PRESELECT
  *output, history, variable=PRESELECT
  *Step, name=Step-1, nlgeom=YES
  *Step, name=Step-1, nlgeom=YES
  *static
  *boundary
  *boundary
  *output, field, variable=PRESELECT
  *output, history, variable=PRESELECT
  *nodeprint
  *elprint, position=CENTROIDAL

 ***WARNING: OUTPUT REQUEST DG IS ONLY AVAILABLE FOR *HYPERELASTIC/FOAM AND 
             *USER MATERIAL.
  *nodeprint, nset=ASSEMBLY_BC-SET-1
  *nodeprint, nset=ASSEMBLY_BC-SET-2
  *endstep
  *Step, name=Step-1, nlgeom=YES
  *static
  *boundary
  *boundary
  *endstep

 ***NOTE: Boundary conditions are specified on inactive dof of 679 nodes. The 
          nodes have been identified in node set WarnNodeBCInactiveDof.


                              E L E M E N T,   N O D E,   A N D   S U R F A C E   M A P S


**NOTE: This section may not include complete information about
        members of sets and surfaces. Use *PREPRINT, MODEL=YES 
        in order to get the set and surface members printed    
        under the following sections:                          
            - E L E M E N T   S E T S                          
            - N O D E   S E T S                                
            - S U R F A C E   D E F I N I T I O N S .          


Assembly name: ASSEMBLY
Number of instances: 1

ASSEMBLY LEVEL
  node sets:
    BC-SET-1:
      instance name: PART-1-1
      number of nodes: 679
      nodes: 
        1 2 3 4 5 6 7 8 9 10 11 12 13 14 15 16 17 18 19 20 21 22 23 24
        25 26 27 28 29 30 31 32 33 34 35 36 37 38 39 40 41 42 43 44 45
        46 47 48 49 50 51 52 53 54 55 56 57 58 59 60 61 62 63 64 65 66
        67 68 69 70 71 72 73 74 75 76 77 78 79 80 81 82 83 84 85 86 173
        174 175 176 177 178 179 180 181 182 183 199 200 201 202 203 204
        205 206 207 208 209 210 211 212 213 214 215 216 217 218 219 220
        221 222 223 224 225 226 227 228 229 230 231 232 233 234 235 236
        237 238 239 240 241 242 243 244 245 246 247 248 249 250 251 252
        253 254 255 256 257 258 259 260 261 262 263 264 265 266 267 268
        269 270 271 272 273 274 275 276 277 278 279 280 281 282 283 284
        371 372 373 374 375 376 377 378 379 380 381 409 410 411 412 413
        414 415 416 417 418 419 420 421 422 423 424 425 426 427 428 429
        430 431 432 433 434 435 436 437 438 439 440 441 442 443 444 445
        446 447 448 449 450 451 452 453 454 455 456 457 458 459 460 461
        462 463 464 465 466 467 468 469 470 471 472 473 474 475 476 477
        478 479 480 481 482 483 484 485 486 487 488 489 490 491 492 493
        494 495 496 497 498 499 500 501 502 503 504 505 506 507 508 509
        510 511 512 513 514 515 516 517 518 519 520 521 522 523 524 525
        526 527 528 529 530 531 532 533 534 535 536 537 538 539 540 541
        542 543 544 545 546 547 548 549 550 551 552 553 554 555 556 557
        558 559 560 561 562 563 564 565 566 567 568 569 570 571 572 573
        574 575 576 577 578 579 580 581 582 583 584 585 586 587 588 589
        590 591 592 593 594 595 596 597 598 599 600 601 602 603 604 605
        606 607 608 609 610 611 612 613 614 615 616 617 618 619 620 621
        622 623 624 625 626 627 628 629 630 631 632 633 634 635 636 637
        638 639 640 641 642 643 644 645 646 647 648 649 650 651 652 653
        654 655 656 657 658 659 660 661 662 663 664 665 666 667 668 669
        670 671 672 673 674 675 676 677 678 679 680 681 682 683 684 685
        686 687 688 689 690 691 692 693 694 695 696 697 698 699 700 701
        702 703 704 705 706 707 708 709 710 711 712 713 714 715 716 717
        718 719 720 721 722 723 724 725 726 727 728 729 730 731 732 733
        734 735 736 737 738 739 740 741 742 743 744 745 746 747 748 749
        750 751 752 753 754 755 756 757 758 759 760 761 762 763 764 765
        766 767 768 769 770 771 772 773 774 775 776 777 778 779 780 781
        782 783 784 785 786 787 788 789 790 791 792 793 794 795 796 797
        798 799 800 801 802 803 804 805 806 807 808 809 810 811 812 813
        814 815 816 817 818 819 820 821 822 823 824 825 826 827 828 829
        830 831 832 833 834 835 836 837 838 1269 1270 1271 1272 1273
        1274 1275 1276 1277 1278 1279 1280 1281 1282 1283 1284 1285 1286
        1287 1288 1289 1290 1291 1292 1293 1294 1295 1296 1297 1298 1299
        1300 1301 1302 1303 1304 1305 1306 1307 1308 1309 1310 1311 1312
        1313 1314 1315 1316 1317 1318 1319 1320 1321 1322 1323

    BC-SET-2:
      instance name: PART-1-1
      number of nodes: 679
      nodes: 
        87 88 89 90 91 92 93 94 95 96 97 98 99 100 101 102 103 104 105
        106 107 108 109 110 111 112 113 114 115 116 117 118 119 120 121
        122 123 124 125 126 127 128 129 130 131 132 133 134 135 136 137
        138 139 140 141 142 143 144 145 146 147 148 149 150 151 152 153
        154 155 156 157 158 159 160 161 162 163 164 165 166 167 168 169
        170 171 172 186 187 188 189 190 191 192 193 194 195 196 285 286
        287 288 289 290 291 292 293 294 295 296 297 298 299 300 301 302
        303 304 305 306 307 308 309 310 311 312 313 314 315 316 317 318
        319 320 321 322 323 324 325 326 327 328 329 330 331 332 333 334
        335 336 337 338 339 340 341 342 343 344 345 346 347 348 349 350
        351 352 353 354 355 356 357 358 359 360 361 362 363 364 365 366
        367 368 369 370 384 385 386 387 388 389 390 391 392 393 394 839
        840 841 842 843 844 845 846 847 848 849 850 851 852 853 854 855
        856 857 858 859 860 861 862 863 864 865 866 867 868 869 870 871
        872 873 874 875 876 877 878 879 880 881 882 883 884 885 886 887
        888 889 890 891 892 893 894 895 896 897 898 899 900 901 902 903
        904 905 906 907 908 909 910 911 912 913 914 915 916 917 918 919
        920 921 922 923 924 925 926 927 928 929 930 931 932 933 934 935
        936 937 938 939 940 941 942 943 944 945 946 947 948 949 950 951
        952 953 954 955 956 957 958 959 960 961 962 963 964 965 966 967
        968 969 970 971 972 973 974 975 976 977 978 979 980 981 982 983
        984 985 986 987 988 989 990 991 992 993 994 995 996 997 998 999
        1000 1001 1002 1003 1004 1005 1006 1007 1008 1009 1010 1011 1012
        1013 1014 1015 1016 1017 1018 1019 1020 1021 1022 1023 1024 1025
        1026 1027 1028 1029 1030 1031 1032 1033 1034 1035 1036 1037 1038
        1039 1040 1041 1042 1043 1044 1045 1046 1047 1048 1049 1050 1051
        1052 1053 1054 1055 1056 1057 1058 1059 1060 1061 1062 1063 1064
        1065 1066 1067 1068 1069 1070 1071 1072 1073 1074 1075 1076 1077
        1078 1079 1080 1081 1082 1083 1084 1085 1086 1087 1088 1089 1090
        1091 1092 1093 1094 1095 1096 1097 1098 1099 1100 1101 1102 1103
        1104 1105 1106 1107 1108 1109 1110 1111 1112 1113 1114 1115 1116
        1117 1118 1119 1120 1121 1122 1123 1124 1125 1126 1127 1128 1129
        1130 1131 1132 1133 1134 1135 1136 1137 1138 1139 1140 1141 1142
        1143 1144 1145 1146 1147 1148 1149 1150 1151 1152 1153 1154 1155
        1156 1157 1158 1159 1160 1161 1162 1163 1164 1165 1166 1167 1168
        1169 1170 1171 1172 1173 1174 1175 1176 1177 1178 1179 1180 1181
        1182 1183 1184 1185 1186 1187 1188 1189 1190 1191 1192 1193 1194
        1195 1196 1197 1198 1199 1200 1201 1202 1203 1204 1205 1206 1207
        1208 1209 1210 1211 1212 1213 1214 1215 1216 1217 1218 1219 1220
        1221 1222 1223 1224 1225 1226 1227 1228 1229 1230 1231 1232 1233
        1234 1235 1236 1237 1238 1239 1240 1241 1242 1243 1244 1245 1246
        1247 1248 1249 1250 1251 1252 1253 1254 1255 1256 1257 1258 1259
        1260 1261 1262 1263 1264 1265 1266 1267 1268 1334 1335 1336 1337
        1338 1339 1340 1341 1342 1343 1344 1345 1346 1347 1348 1349 1350
        1351 1352 1353 1354 1355 1356 1357 1358 1359 1360 1361 1362 1363
        1364 1365 1366 1367 1368 1369 1370 1371 1372 1373 1374 1375 1376
        1377 1378 1379 1380 1381 1382 1383 1384 1385 1386 1387 1388

  element sets:
    BC-SET-1:
      instance name: PART-1-1
      number of elements: 2502
      elements: 
        12 16 28 54 55 67 81 84 96 118 123 134 136 140 143 150 162 164
        172 175 180 181 196 211 212 213 215 219 222 223 227 232 240 241
        243 245 246 248 251 252 255 260 261 265 266 267 269 270 272 284
        292 301 304 311 317 318 319 330 333 335 341 355 356 362 365 366
        367 369 371 372 373 374 375 376 377 378 379 384 389 390 391 393
        394 398 407 419 421 423 424 436 441 442 444 455 460 462 464 472
        474 479 481 483 485 486 489 493 494 495 502 534 536 538 540 541
        546 547 550 551 553 563 564 569 570 571 573 574 575 577 591 602
        605 607 609 616 618 623 633 644 647 652 654 655 657 659 670 676
        678 681 682 683 689 690 691 692 695 698 699 700 702 703 704 705
        706 708 710 712 713 719 720 721 722 723 724 726 727 728 729 730
        731 732 738 742 743 747 748 750 753 755 760 763 764 765 767 768
        769 770 775 779 782 784 785 788 791 792 797 800 804 805 816 825
        826 828 831 834 835 836 837 838 840 841 842 843 845 853 855 856
        857 858 868 876 882 883 884 893 894 895 896 897 898 916 918 919
        920 922 923 924 925 927 930 933 937 938 939 941 944 947 953 957
        958 961 962 963 964 965 967 968 970 971 972 973 974 975 976 977
        978 979 981 984 985 987 988 989 991 995 999 1001 1002 1003 1004
        1006 1008 1009 1010 1012 1018 1021 1022 1023 1025 1027 1035 1036
        1038 1039 1041 1044 1047 1048 1068 1078 1079 1082 1083 1086 1090
        1093 1094 1095 1103 1104 1107 1111 1114 1117 1119 1123 1130 1131
        1133 1135 1136 1142 1143 1146 1150 1158 1161 1163 1164 1165 1166
        1167 1168 1169 1171 1173 1174 1176 1178 1183 1184 1188 1192 1197
        1200 1207 1208 1209 1210 1211 1213 1214 1215 1216 1217 1220 1221
        1224 1226 1230 1233 1234 1237 1238 1242 1243 1244 1250 1254 1273
        1274 1277 1280 1281 1289 1290 1291 1293 1307 1310 1311 1312 1313
        1319 1320 1321 1332 1333 1335 1338 1345 1348 1349 1350 1357 1358
        1360 1366 1368 1375 1376 1377 1381 1382 1384 1387 1391 1395 1398
        1399 1400 1401 1402 1404 1405 1406 1408 1409 1423 1424 1428 1432
        1433 1434 1437 1438 1439 1440 1441 1442 1443 1444 1445 1446 1448
        1449 1452 1453 1455 1459 1464 1465 1468 1472 1474 1475 1480 1482
        1486 1488 1495 1498 1499 1505 1506 1507 1509 1513 1514 1515 1520
        1531 1532 1534 1535 1541 1544 1545 1546 1547 1548 1549 1550 1551
        1557 1559 1562 1564 1566 1569 1574 1577 1579 1581 1582 1584 1586
        1588 1589 1590 1591 1592 1596 1600 1601 1603 1604 1606 1607 1610
        1611 1614 1615 1619 1620 1623 1630 1638 1642 1644 1645 1647 1651
        1652 1656 1660 1667 1669 1670 1674 1675 1684 1686 1687 1709 1712
        1727 1731 1736 1737 1738 1741 1742 1743 1756 1760 1764 1765 1766
        1767 1768 1769 1770 1775 1776 1778 1780 1784 1788 1789 1790 1802
        1803 1805 1807 1808 1817 1825 1829 1837 1839 1844 1846 1854 1855
        1862 1863 1864 1866 1867 1873 1881 1889 1890 1900 1906 1910 1911
        1916 1917 1929 1938 1939 1940 1941 1959 1961 1962 1964 1965 1967
        1969 1970 1975 1981 1982 1984 1985 1989 1997 1999 2001 2007 2014
        2015 2019 2021 2023 2025 2028 2030 2031 2032 2034 2035 2037 2047
        2049 2050 2051 2053 2054 2056 2058 2060 2061 2062 2071 2072 2076
        2079 2085 2090 2096 2098 2099 2118 2119 2121 2122 2123 2124 2125
        2126 2134 2138 2139 2144 2145 2146 2151 2152 2155 2156 2166 2167
        2170 2172 2182 2183 2185 2186 2189 2195 2197 2206 2211 2212 2213
        2215 2238 2244 2246 2251 2253 2254 2255 2257 2260 2264 2267 2268
        2273 2279 2283 2285 2292 2299 2305 2310 2311 2313 2315 2318 2323
        2325 2331 2339 2341 2343 2352 2353 2363 2364 2369 2370 2374 2376
        2379 2382 2383 2384 2385 2390 2397 2398 2407 2408 2415 2416 2417
        2418 2421 2425 2427 2432 2437 2439 2443 2444 2445 2446 2448 2450
        2453 2460 2468 2473 2474 2475 2478 2480 2481 2486 2487 2489 2502
        2512 2515 2518 2520 2522 2523 2530 2541 2545 2548 2550 2551 2552
        2559 2561 2562 2565 2566 2577 2578 2580 2581 2582 2586 2588 2590
        2591 2595 2600 2601 2602 2612 2613 2616 2617 2625 2630 2632 2633
        2639 2640 2647 2648 2649 2650 2659 2663 2664 2665 2666 2668 2669
        2670 2673 2674 2675 2677 2690 2693 2696 2699 2703 2705 2709 2710
        2713 2715 2723 2724 2727 2728 2730 2731 2734 2735 2739 2743 2744
        2745 2749 2750 2751 2752 2753 2758 2760 2763 2765 2778 2779 2780
        2781 2782 2786 2787 2788 2793 2794 2795 2796 2804 2806 2807 2813
        2814 2818 2819 2820 2821 2829 2830 2833 2837 2843 2846 2853 2857
        2865 2867 2869 2870 2872 2873 2874 2876 2883 2885 2888 2889 2891
        2895 2896 2898 2906 2910 2911 2914 2915 2917 2925 2929 2931 2932
        2936 2941 2942 2949 2954 2955 2956 2958 2959 2960 2977 2978 2981
        2993 2995 2997 2998 3000 3003 3006 3007 3009 3010 3016 3022 3023
        3024 3034 3035 3037 3040 3042 3045 3048 3049 3051 3053 3057 3059
        3061 3067 3079 3085 3093 3094 3095 3099 3102 3103 3105 3108 3117
        3119 3135 3141 3142 3143 3144 3145 3146 3147 3149 3158 3159 3160
        3168 3179 3185 3191 3192 3194 3205 3208 3212 3213 3214 3218 3219
        3221 3222 3223 3224 3227 3229 3230 3234 3236 3240 3246 3247 3250
        3258 3264 3265 3268 3269 3271 3272 3273 3278 3280 3298 3303 3305
        3307 3308 3311 3312 3313 3315 3317 3318 3319 3321 3322 3323 3324
        3326 3327 3329 3353 3354 3365 3367 3368 3372 3383 3384 3385 3386
        3388 3389 3393 3396 3404 3405 3406 3415 3419 3420 3421 3425 3426
        3430 3433 3436 3441 3446 3456 3461 3466 3467 3472 3473 3474 3477
        3489 3492 3495 3496 3502 3510 3515 3522 3524 3526 3536 3537 3542
        3554 3568 3570 3571 3572 3575 3580 3581 3584 3585 3589 3593 3595
        3597 3604 3606 3610 3613 3618 3621 3624 3637 3639 3645 3647 3650
        3651 3652 3654 3655 3660 3661 3669 3671 3672 3684 3688 3693 3699
        3701 3703 3704 3709 3723 3724 3728 3729 3730 3738 3739 3740 3743
        3747 3749 3759 3760 3761 3763 3764 3766 3768 3770 3772 3773 3774
        3776 3784 3791 3799 3804 3818 3821 3823 3826 3827 3832 3834 3835
        3836 3839 3848 3865 3869 3871 3872 3873 3874 3876 3878 3880 3881
        3891 3894 3902 3915 3918 3920 3932 3947 3953 3968 3978 3981 3982
        3984 3985 3986 3987 3991 3993 3994 3997 4001 4011 4023 4024 4025
        4026 4027 4044 4048 4051 4052 4056 4060 4063 4065 4067 4072 4078
        4089 4092 4094 4095 4099 4101 4102 4103 4104 4108 4116 4119 4125
        4127 4128 4129 4131 4132 4136 4138 4139 4141 4144 4146 4148 4151
        4158 4166 4167 4173 4174 4180 4182 4193 4194 4196 4201 4203 4205
        4213 4216 4217 4221 4225 4227 4229 4235 4246 4247 4248 4249 4254
        4255 4261 4263 4264 4265 4267 4271 4275 4277 4278 4279 4281 4288
        4296 4302 4307 4309 4310 4312 4342 4345 4346 4347 4348 4351 4353
        4354 4357 4358 4359 4360 4362 4363 4364 4365 4368 4373 4374 4376
        4378 4380 4381 4383 4385 4387 4389 4391 4401 4403 4404 4406 4407
        4410 4411 4416 4417 4419 4420 4427 4435 4437 4449 4453 4454 4455
        4457 4461 4462 4463 4474 4476 4478 4483 4488 4496 4497 4499 4503
        4506 4507 4514 4517 4526 4534 4538 4544 4546 4551 4552 4554 4559
        4561 4564 4566 4578 4584 4591 4604 4608 4609 4610 4611 4612 4614
        4616 4624 4626 4627 4629 4638 4642 4643 4647 4648 4650 4652 4654
        4655 4657 4658 4659 4660 4661 4677 4679 4680 4686 4689 4701 4724
        4726 4730 4732 4736 4737 4739 4754 4757 4758 4763 4769 4770 4773
        4791 4798 4802 4805 4807 4813 4814 4815 4826 4831 4832 4839 4841
        4843 4851 4852 4853 4856 4858 4859 4860 4861 4863 4868 4869 4871
        4874 4877 4878 4888 4889 4891 4893 4903 4905 4906 4907 4910 4911
        4912 4913 4914 4915 4916 4917 4921 4923 4925 4927 4928 4929 4931
        4932 4937 4939 4943 4945 4962 4968 4975 4980 4981 4984 4985 4991
        4996 4999 5004 5005 5009 5010 5028 5030 5034 5036 5038 5039 5041
        5044 5048 5050 5054 5060 5068 5071 5086 5097 5100 5102 5104 5109
        5119 5120 5121 5129 5139 5140 5142 5144 5145 5148 5149 5157 5158
        5159 5161 5162 5165 5166 5167 5168 5169 5178 5186 5193 5198 5205
        5208 5221 5222 5223 5225 5229 5240 5241 5244 5249 5253 5254 5271
        5274 5278 5279 5280 5282 5287 5298 5299 5307 5308 5309 5310 5311
        5312 5314 5315 5319 5322 5323 5324 5326 5327 5329 5339 5343 5344
        5348 5352 5360 5365 5366 5368 5369 5372 5373 5374 5381 5392 5394
        5396 5397 5398 5400 5404 5405 5406 5407 5410 5412 5413 5415 5418
        5421 5424 5425 5427 5434 5451 5453 5456 5458 5460 5461 5462 5473
        5474 5476 5481 5482 5483 5484 5487 5488 5491 5495 5500 5502 5510
        5511 5512 5514 5515 5516 5523 5524 5529 5543 5546 5555 5564 5565
        5566 5567 5570 5571 5576 5577 5579 5582 5584 5587 5588 5591 5592
        5593 5594 5607 5608 5610 5613 5614 5624 5625 5626 5636 5637 5638
        5642 5650 5659 5666 5677 5680 5681 5687 5689 5691 5704 5709 5711
        5712 5713 5714 5715 5716 5717 5718 5730 5733 5738 5739 5740 5746
        5748 5758 5770 5774 5775 5776 5778 5779 5782 5786 5787 5794 5795
        5796 5797 5804 5818 5833 5834 5845 5846 5856 5857 5870 5880 5885
        5886 5890 5891 5896 5898 5899 5900 5901 5903 5909 5912 5916 5923
        5925 5927 5928 5932 5934 5940 5944 5949 5951 5952 5953 5954 5955
        5956 5957 5958 5959 5961 5962 5963 5966 5967 5968 5969 5973 5996
        6008 6010 6019 6020 6021 6022 6023 6030 6033 6037 6038 6040 6041
        6044 6045 6048 6060 6062 6071 6073 6074 6082 6083 6094 6097 6120
        6121 6122 6123 6132 6133 6134 6135 6138 6145 6149 6150 6151 6153
        6161 6163 6165 6167 6192 6195 6213 6214 6222 6223 6228 6232 6244
        6245 6248 6249 6257 6264 6268 6271 6280 6281 6288 6294 6310 6325
        6326 6336 6337 6338 6341 6342 6348 6358 6366 6390 6393 6399 6400
        6401 6402 6403 6405 6408 6410 6411 6413 6424 6444 6445 6447 6448
        6449 6455 6458 6462 6464 6481 6492 6493 6494 6504 6508 6513 6515
        6516 6519 6528 6532 6545 6553 6555 6559 6580 6591 6605 6606 6609
        6610 6622 6624 6625 6636 6639 6641 6643 6663 6665 6672 6675 6685
        6690 6693 6696 6698 6711 6720 6727 6728 6729 6730 6738 6743 6748
        6749 6766 6768 6771 6773 6774 6779 6781 6784 6800 6802 6834 6842
        6843 6859 6860 6866 6871 6888 6900 6902 6920 6925 6928 6941 6944
        6949 6950 6951 6965 6972 6974 6981 6988 6990 7002 7005 7006 7014
        7015 7016 7017 7018 7022 7024 7026 7028 7029 7030 7034 7036 7040
        7042 7044 7045 7047 7052 7053 7054 7056 7057 7058 7059 7060 7069
        7075 7080 7100 7101 7110 7119 7125 7129 7144 7145 7146 7147 7163
        7175 7181 7210 7226 7230 7242 7245 7248 7249 7250 7251 7252 7258
        7260 7265 7272 7285 7290 7292 7293 7306 7307 7308 7330 7332 7335
        7344 7345 7351 7353 7363 7381 7389 7395 7406 7424 7430 7433 7437
        7443 7450 7458 7465 7473 7474 7481 7484 7495 7500 7518 7522 7531
        7532 7545 7546 7549 7553 7556 7562 7563 7564 7566 7591 7593 7594
        7595 7596 7607 7608 7620 7622 7625 7647 7648 7649 7653 7654 7657
        7658 7661 7665 7670 7671 7678 7691 7693 7697 7714 7738 7747 7748
        7749 7751 7752 7756 7757 7770 7773 7774 7778 7780 7782 7786 7787
        7805 7806 7807 7819 7820 7822 7823 7825 7836 7843 7851 7854 7858
        7860 7880 7881 7882 7883 7884 7893 7910 7913 7914 7921 7922 7924
        7925 7936 7937 7938 7942 7943 7946 7959 7966 7972 7974 7996 8010
        8017 8019 8020 8028 8040 8041 8042 8044 8047 8057 8058 8061 8064
        8065 8066 8068 8069 8070 8072 8073 8074 8075 8076 8083 8095 8096
        8097 8098 8121 8135 8136 8142 8150 8158 8159 8175 8176 8177 8178
        8180 8185 8186 8187 8209 8210 8212 8213 8214 8231 8232 8234 8236
        8247 8251 8255 8257 8267 8270 8272 8274 8275 8276 8279 8281 8282
        8315 8334 8335 8344 8348 8351 8354 8356 8370 8373 8379 8390 8398
        8399 8402 8403 8404 8410 8421 8423 8431 8438 8440 8446 8447 8448
        8450 8453 8454 8456 8459 8460 8469 8471 8473 8474 8481 8502 8503
        8512 8523 8527 8528 8529 8530 8531 8532 8533 8535 8536 8542 8543
        8556 8557 8568 8572 8587 8591 8592 8593 8598 8599 8613 8621 8625
        8637 8644 8645 8646 8647 8648 8655 8656 8657 8664 8674 8679 8681
        8685 8691 8695 8696 8700 8701 8704 8710 8716 8717 8748 8750 8760
        8761 8772 8773 8778 8779 8780 8784 8809 8817 8819 8821 8822 8824
        8826 8836 8837 8839 8840 8841 8842 8854 8857 8858 8865 8869 8872
        8873 8882 8887 8892 8902 8927 8929 8942 8943 8944 8945 8947 8955
        8978 8990 8994 8998 9006 9015 9017 9024 9039 9048 9049 9051 9053
        9054 9056 9062 9073 9077 9083 9095 9101 9103 9115 9124 9125 9128
        9131 9134 9135 9136 9137 9158 9159 9160 9163 9164 9165 9166 9167
        9168 9169 9170 9171 9175 9176 9177 9183 9196 9207 9210 9212 9218
        9226 9231 9239 9240 9248 9249 9256 9257 9258 9259 9260 9261 9262
        9263 9264 9265 9266 9276 9282 9284 9285 9286 9289 9313 9314 9316
        9318 9322 9324 9325 9332 9333 9334 9335 9336 9374 9378 9379 9386
        9387 9388 9415 9430 9435 9436 9438 9439 9451 9452 9455 9459 9460
        9461 9462 9463 9465 9467 9474 9479 9480 9483 9489 9490 9491 9498
        9499 9503 9504 9510 9515 9516 9517 9520 9535 9540 9541 9552 9555
        9564 9565 9572 9573 9574 9576 9601 9602 9603 9608 9609 9612 9621
        9628 9632 9634 9638 9639 9640 9650 9651 9652 9653 9654 9657 9666
        9673 9674 9678 9685 9693 9701 9707 9710 9711 9712 9713 9722 9729
        9731 9738 9739 9741 9742 9745 9748 9753 9764 9766 9777 9778 9779
        9780 9781 9786 9792 9804 9805 9807 9809 9810 9813 9824 9830 9832
        9833 9836 9839 9850 9851 9855 9856 9857 9876 9914 9928 9972 9977
        9997 9998 10000

    BC-SET-2:
      instance name: PART-1-1
      number of elements: 2531
      elements: 
        7 8 9 11 14 70 72 86 87 93 112 114 117 137 141 147 149 155 156
        157 159 161 163 166 169 174 179 186 192 195 197 198 200 201 202
        203 204 206 207 208 210 214 216 217 221 225 229 234 235 238 239
        244 249 253 254 257 262 263 268 274 277 279 280 281 282 283 285
        286 287 289 294 297 298 300 302 303 306 310 314 320 327 329 331
        332 336 337 339 340 342 344 345 347 349 352 353 357 358 359 361
        363 368 370 380 383 385 387 388 392 400 403 404 405 406 411 412
        416 420 425 427 428 432 433 434 435 437 438 439 440 446 448 449
        450 453 454 456 457 458 465 466 469 470 471 473 475 476 477 478
        482 484 487 488 490 492 496 498 499 500 505 506 508 509 513 514
        516 520 521 526 527 528 529 530 533 543 545 548 549 552 555 556
        557 559 567 572 576 579 580 581 583 584 585 586 587 588 589 592
        598 601 603 604 606 610 611 612 613 615 617 619 622 624 625 626
        627 628 632 637 641 649 653 658 663 664 665 666 668 672 673 677
        680 686 688 694 696 697 701 707 709 711 714 715 717 733 745 746
        754 757 759 766 776 777 778 780 783 786 787 796 803 806 807 808
        811 812 813 814 819 821 823 830 833 846 847 849 850 852 859 860
        861 862 863 865 866 867 870 871 873 875 877 878 879 880 890 891
        892 904 910 911 912 913 921 926 931 932 934 935 943 946 948 949
        950 951 952 954 955 956 969 982 983 990 993 994 997 998 1000
        1007 1011 1015 1016 1017 1019 1020 1026 1030 1031 1034 1042 1050
        1051 1053 1054 1055 1056 1059 1061 1062 1064 1065 1066 1067 1070
        1071 1073 1074 1075 1076 1077 1081 1084 1087 1092 1099 1105 1108
        1109 1112 1115 1116 1120 1121 1122 1124 1126 1128 1129 1134 1139
        1144 1149 1151 1153 1155 1156 1160 1175 1187 1189 1190 1194 1204
        1206 1219 1222 1227 1228 1231 1241 1245 1247 1248 1249 1251 1259
        1260 1262 1263 1265 1269 1270 1271 1276 1282 1283 1284 1292 1295
        1296 1298 1299 1300 1302 1303 1306 1308 1314 1318 1322 1323 1324
        1325 1326 1327 1328 1329 1330 1336 1337 1344 1346 1347 1351 1352
        1353 1356 1362 1365 1369 1370 1371 1372 1378 1379 1394 1403 1413
        1416 1418 1419 1420 1421 1422 1429 1431 1450 1454 1458 1467 1470
        1471 1473 1483 1485 1489 1490 1491 1494 1510 1512 1523 1524 1525
        1527 1530 1537 1553 1558 1561 1568 1573 1575 1576 1580 1602 1605
        1609 1613 1616 1621 1622 1624 1631 1632 1633 1634 1635 1636 1637
        1639 1641 1643 1648 1649 1650 1658 1659 1661 1663 1678 1679 1681
        1688 1689 1690 1692 1693 1695 1696 1697 1698 1699 1701 1703 1704
        1707 1710 1711 1713 1714 1716 1717 1719 1720 1724 1729 1733 1734
        1735 1744 1747 1748 1753 1754 1758 1771 1772 1777 1785 1787 1795
        1796 1797 1798 1800 1801 1804 1806 1811 1812 1813 1814 1816 1819
        1820 1821 1826 1827 1828 1831 1832 1833 1834 1838 1842 1845 1847
        1848 1850 1852 1853 1858 1870 1871 1874 1875 1876 1877 1880 1882
        1884 1886 1887 1888 1891 1894 1902 1908 1919 1920 1926 1932 1933
        1936 1937 1944 1945 1946 1947 1953 1954 1956 1971 1974 1977 1979
        1983 1986 1987 1991 1992 1993 1998 2006 2008 2011 2013 2016 2039
        2040 2041 2042 2043 2044 2045 2048 2055 2059 2063 2069 2075 2080
        2081 2082 2083 2084 2086 2087 2088 2091 2092 2093 2094 2095 2097
        2100 2101 2105 2107 2108 2112 2113 2115 2120 2131 2135 2136 2137
        2140 2143 2147 2148 2149 2154 2161 2162 2164 2168 2169 2173 2175
        2177 2178 2190 2191 2192 2198 2200 2201 2204 2205 2207 2218 2223
        2228 2230 2232 2233 2235 2236 2237 2240 2242 2247 2248 2249 2256
        2258 2269 2271 2274 2278 2280 2284 2289 2295 2300 2304 2317 2319
        2324 2326 2327 2329 2332 2333 2334 2335 2337 2338 2342 2344 2351
        2362 2365 2366 2367 2368 2372 2381 2389 2391 2392 2393 2399 2405
        2414 2429 2430 2441 2455 2456 2462 2463 2465 2466 2469 2476 2477
        2479 2484 2485 2495 2503 2504 2505 2509 2514 2516 2519 2521 2524
        2526 2527 2529 2542 2543 2547 2549 2553 2558 2560 2564 2568 2572
        2574 2583 2584 2587 2592 2596 2599 2603 2604 2606 2607 2608 2609
        2622 2626 2627 2628 2637 2638 2641 2654 2655 2656 2657 2658 2660
        2667 2678 2681 2686 2687 2691 2692 2694 2702 2704 2716 2725 2732
        2747 2754 2756 2757 2761 2768 2769 2770 2772 2776 2777 2789 2791
        2792 2797 2799 2800 2808 2810 2811 2822 2824 2825 2826 2827 2828
        2831 2832 2835 2849 2851 2852 2854 2855 2859 2875 2877 2878 2879
        2881 2882 2892 2897 2902 2903 2905 2907 2908 2909 2913 2916 2918
        2919 2920 2927 2933 2934 2947 2950 2952 2953 2966 2967 2970 2972
        2976 2979 2984 2985 2986 2991 2996 2999 3004 3005 3015 3026 3027
        3028 3036 3043 3050 3052 3062 3065 3068 3071 3072 3073 3074 3075
        3077 3080 3081 3082 3084 3087 3090 3091 3096 3098 3101 3109 3111
        3112 3118 3120 3122 3123 3129 3130 3131 3132 3133 3134 3137 3139
        3140 3148 3150 3151 3152 3154 3157 3161 3162 3163 3164 3166 3171
        3172 3175 3178 3181 3182 3184 3187 3188 3193 3195 3198 3209 3210
        3211 3215 3237 3238 3239 3244 3251 3254 3260 3262 3263 3270 3275
        3277 3279 3282 3284 3289 3291 3294 3295 3296 3297 3299 3301 3304
        3316 3336 3340 3342 3351 3352 3356 3357 3358 3359 3371 3374 3376
        3377 3378 3379 3381 3382 3387 3391 3394 3398 3399 3400 3401 3402
        3408 3412 3414 3417 3422 3427 3428 3432 3434 3447 3449 3450 3453
        3455 3457 3458 3459 3462 3465 3468 3469 3485 3490 3497 3499 3504
        3505 3509 3513 3523 3525 3532 3543 3546 3547 3551 3560 3563 3565
        3566 3569 3573 3574 3578 3579 3582 3583 3587 3588 3591 3592 3594
        3600 3612 3629 3631 3632 3633 3634 3636 3638 3640 3641 3642 3646
        3648 3649 3658 3659 3663 3673 3677 3681 3682 3683 3689 3690 3692
        3694 3695 3698 3706 3708 3710 3713 3718 3719 3720 3722 3732 3741
        3742 3744 3746 3751 3752 3767 3775 3782 3786 3787 3796 3797 3800
        3802 3803 3805 3806 3815 3819 3820 3825 3828 3837 3840 3841 3842
        3843 3844 3845 3846 3847 3849 3850 3851 3857 3859 3861 3863 3866
        3867 3868 3870 3882 3883 3886 3887 3892 3895 3899 3901 3904 3910
        3929 3933 3935 3936 3943 3944 3948 3952 3954 3960 3961 3962 3963
        3970 3974 3975 3977 3990 3992 3996 3998 4002 4007 4010 4018 4020
        4022 4028 4029 4032 4033 4036 4037 4043 4045 4046 4047 4054 4055
        4057 4058 4069 4074 4075 4079 4085 4090 4106 4107 4112 4113 4117
        4122 4123 4124 4130 4153 4154 4163 4168 4169 4170 4171 4172 4175
        4176 4199 4204 4208 4210 4211 4214 4215 4220 4222 4224 4228 4230
        4237 4238 4240 4242 4243 4250 4252 4253 4256 4257 4259 4262 4269
        4270 4274 4276 4283 4289 4294 4299 4304 4314 4317 4320 4321 4322
        4323 4324 4325 4326 4330 4332 4333 4334 4336 4338 4339 4350 4356
        4369 4371 4372 4375 4377 4379 4382 4396 4398 4400 4408 4409 4418
        4421 4426 4443 4444 4448 4450 4458 4464 4465 4466 4467 4468 4469
        4470 4472 4473 4485 4486 4489 4491 4492 4494 4498 4502 4505 4509
        4521 4529 4531 4537 4539 4540 4542 4543 4545 4548 4550 4557 4558
        4560 4562 4567 4569 4572 4573 4574 4575 4576 4582 4583 4587 4588
        4594 4598 4603 4618 4620 4621 4625 4631 4641 4651 4656 4663 4671
        4672 4674 4675 4676 4681 4682 4683 4685 4687 4688 4690 4692 4695
        4698 4699 4705 4706 4713 4720 4721 4725 4727 4731 4738 4740 4745
        4748 4749 4750 4751 4752 4753 4755 4756 4759 4760 4761 4765 4766
        4767 4768 4774 4775 4776 4777 4778 4779 4780 4781 4788 4789 4790
        4794 4797 4801 4804 4811 4817 4818 4819 4820 4821 4825 4827 4828
        4829 4837 4838 4842 4844 4845 4847 4862 4864 4867 4875 4876 4879
        4881 4882 4894 4896 4902 4918 4919 4926 4938 4941 4944 4946 4947
        4948 4949 4955 4956 4957 4958 4959 4960 4965 4967 4976 4977 4978
        4986 4987 4988 4992 4998 5002 5020 5021 5026 5035 5040 5042 5043
        5045 5046 5047 5049 5052 5061 5063 5064 5070 5072 5077 5081 5082
        5083 5084 5085 5087 5088 5089 5090 5092 5094 5095 5098 5099 5114
        5115 5130 5131 5143 5146 5147 5150 5152 5153 5160 5163 5174 5180
        5195 5201 5203 5204 5207 5209 5210 5211 5214 5217 5227 5234 5243
        5248 5252 5255 5263 5265 5267 5269 5292 5297 5325 5328 5330 5331
        5333 5337 5341 5350 5351 5354 5356 5375 5377 5378 5379 5380 5387
        5390 5399 5401 5403 5408 5417 5419 5429 5430 5435 5436 5437 5442
        5464 5492 5501 5507 5517 5518 5519 5522 5528 5530 5531 5532 5533
        5535 5536 5537 5539 5540 5541 5542 5545 5547 5548 5549 5550 5551
        5553 5557 5569 5572 5573 5575 5578 5581 5598 5604 5606 5627 5629
        5632 5639 5640 5641 5643 5645 5646 5647 5652 5656 5657 5660 5671
        5672 5673 5682 5683 5684 5686 5688 5694 5702 5721 5726 5742 5751
        5755 5756 5757 5759 5760 5761 5764 5766 5767 5768 5801 5806 5807
        5808 5820 5821 5826 5828 5829 5838 5840 5841 5847 5851 5852 5866
        5868 5869 5871 5872 5874 5879 5888 5892 5906 5907 5911 5913 5918
        5920 5922 5924 5935 5937 5938 5964 5977 5982 5994 5997 6004 6007
        6009 6011 6012 6013 6014 6016 6018 6024 6026 6027 6032 6034 6035
        6047 6049 6050 6077 6078 6085 6091 6092 6095 6098 6101 6103 6104
        6105 6117 6124 6125 6130 6131 6140 6144 6152 6154 6155 6156 6159
        6166 6169 6175 6181 6188 6194 6197 6198 6200 6201 6209 6210 6237
        6238 6240 6242 6251 6252 6253 6256 6258 6259 6260 6267 6290 6295
        6296 6319 6322 6327 6332 6333 6339 6346 6347 6349 6353 6354 6355
        6359 6360 6363 6374 6375 6379 6380 6381 6382 6383 6384 6386 6387
        6388 6389 6392 6409 6415 6419 6425 6432 6433 6434 6435 6437 6440
        6441 6457 6459 6460 6461 6465 6466 6467 6469 6472 6473 6474 6489
        6490 6497 6498 6499 6500 6502 6505 6506 6507 6517 6520 6525 6526
        6534 6543 6547 6554 6556 6561 6565 6566 6567 6570 6571 6572 6573
        6574 6582 6585 6586 6593 6607 6608 6611 6612 6613 6618 6626 6629
        6631 6633 6640 6650 6652 6658 6659 6666 6670 6671 6673 6674 6680
        6681 6687 6688 6689 6692 6695 6705 6706 6712 6714 6717 6718 6719
        6726 6741 6742 6746 6751 6752 6754 6756 6759 6760 6787 6788 6791
        6795 6796 6807 6808 6812 6817 6831 6849 6852 6853 6867 6868 6872
        6873 6876 6881 6885 6889 6890 6892 6894 6896 6905 6906 6910 6914
        6924 6926 6931 6933 6934 6935 6948 6953 6956 6958 6959 6967 6983
        6986 6997 6999 7000 7001 7004 7008 7037 7038 7048 7055 7068 7070
        7076 7085 7086 7088 7093 7094 7095 7096 7105 7106 7108 7112 7116
        7117 7120 7124 7139 7148 7152 7159 7188 7190 7191 7199 7200 7208
        7214 7215 7231 7238 7241 7244 7255 7259 7261 7263 7268 7277 7278
        7280 7281 7283 7284 7295 7299 7312 7313 7314 7315 7320 7321 7333
        7340 7348 7350 7356 7357 7358 7364 7378 7380 7392 7402 7403 7409
        7417 7439 7440 7442 7445 7446 7447 7448 7452 7453 7461 7482 7487
        7489 7492 7494 7499 7501 7513 7519 7520 7534 7535 7539 7543 7547
        7554 7555 7574 7586 7587 7603 7611 7615 7616 7617 7621 7623 7632
        7639 7640 7641 7642 7643 7659 7662 7663 7664 7666 7667 7690 7696
        7712 7713 7722 7723 7727 7734 7736 7737 7739 7744 7746 7760 7761
        7762 7763 7768 7769 7771 7788 7800 7801 7802 7814 7817 7818 7821
        7824 7833 7834 7846 7848 7849 7853 7857 7859 7864 7865 7866 7868
        7869 7885 7911 7912 7931 7932 7933 7934 7940 7944 7945 7954 7955
        7956 7961 7967 7969 7970 7971 7978 7980 7981 7982 7991 7992 7993
        7994 7995 7998 7999 8001 8008 8012 8013 8036 8043 8045 8048 8050
        8051 8052 8063 8077 8078 8082 8084 8090 8102 8103 8108 8116 8117
        8118 8120 8122 8128 8129 8130 8133 8134 8141 8144 8152 8156 8160
        8161 8162 8165 8174 8179 8188 8190 8191 8192 8193 8194 8195 8196
        8200 8201 8202 8208 8218 8221 8222 8224 8227 8228 8229 8230 8254
        8261 8262 8263 8264 8265 8266 8268 8273 8284 8289 8290 8292 8300
        8302 8303 8304 8311 8312 8316 8319 8324 8358 8359 8361 8367 8374
        8376 8377 8380 8391 8401 8407 8408 8409 8411 8414 8415 8417 8418
        8420 8428 8435 8457 8458 8462 8466 8480 8483 8489 8491 8492 8516
        8517 8518 8519 8520 8534 8538 8541 8547 8548 8549 8560 8561 8563
        8571 8576 8577 8579 8580 8581 8583 8588 8605 8609 8610 8611 8612
        8616 8617 8622 8628 8629 8630 8631 8632 8636 8649 8650 8652 8673
        8675 8678 8684 8687 8688 8690 8692 8697 8699 8702 8703 8705 8707
        8708 8712 8713 8715 8736 8741 8742 8743 8744 8745 8746 8747 8751
        8763 8777 8783 8791 8792 8793 8795 8796 8798 8799 8804 8805 8806
        8807 8808 8813 8814 8815 8816 8818 8823 8843 8853 8860 8863 8864
        8867 8868 8874 8876 8880 8888 8893 8913 8914 8922 8923 8926 8932
        8935 8936 8937 8939 8940 8941 8953 8954 8962 8963 8965 8966 8971
        8980 8982 8983 8986 8987 8997 9001 9003 9004 9012 9021 9022 9033
        9034 9035 9036 9037 9040 9042 9057 9069 9079 9086 9087 9088 9096
        9097 9102 9114 9116 9117 9118 9127 9132 9139 9141 9142 9143 9144
        9145 9147 9149 9150 9151 9152 9182 9192 9194 9195 9198 9199 9201
        9223 9224 9247 9250 9275 9279 9280 9281 9287 9288 9300 9304 9305
        9308 9309 9320 9323 9326 9327 9338 9339 9341 9353 9356 9377 9393
        9400 9408 9412 9413 9416 9417 9423 9424 9428 9429 9433 9434 9468
        9518 9519 9527 9529 9546 9547 9549 9550 9551 9553 9556 9557 9585
        9586 9589 9590 9597 9600 9605 9606 9607 9613 9615 9617 9622 9623
        9625 9626 9633 9658 9663 9664 9665 9667 9669 9670 9679 9690 9691
        9695 9698 9699 9702 9718 9719 9724 9725 9728 9744 9761 9763 9767
        9771 9772 9773 9774 9787 9793 9794 9808 9811 9812 9816 9820 9825
        9826 9831 9835 9859 9860 9861 9862 9863 9889 9890 9907 9908 9909
        9922 9934 9935 9936 9942 9950 9962 9993 9994 9995 9996 10002

  Surfaces:

INSTANCE LEVEL
  node sets:
    Instance name: PART-1-1
      node set name: SET-1
        number of nodes: 2604
        nodes: 
          1 2 3 4 5 6 7 8 9 10 11 12 13 14 15 16 17 18 19 20 21 22 23 24
          25 26 27 28 29 30 31 32 33 34 35 36 37 38 39 40 41 42 43 44 45
          46 47 48 49 50 51 52 53 54 55 56 57 58 59 60 61 62 63 64 65 66
          67 68 69 70 71 72 73 74 75 76 77 78 79 80 81 82 83 84 85 86 87
          88 89 90 91 92 93 94 95 96 97 98 99 100 101 102 103 104 105
          106 107 108 109 110 111 112 113 114 115 116 117 118 119 120
          121 122 123 124 125 126 127 128 129 130 131 132 133 134 135
          136 137 138 139 140 141 142 143 144 145 146 147 148 149 150
          151 152 153 154 155 156 157 158 159 160 161 162 163 164 165
          166 167 168 169 170 171 172 173 174 175 176 177 178 179 180
          181 182 183 184 185 186 187 188 189 190 191 192 193 194 195
          196 197 198 199 200 201 202 203 204 205 206 207 208 209 210
          211 212 213 214 215 216 217 218 219 220 221 222 223 224 225
          226 227 228 229 230 231 232 233 234 235 236 237 238 239 240
          241 242 243 244 245 246 247 248 249 250 251 252 253 254 255
          256 257 258 259 260 261 262 263 264 265 266 267 268 269 270
          271 272 273 274 275 276 277 278 279 280 281 282 283 284 285
          286 287 288 289 290 291 292 293 294 295 296 297 298 299 300
          301 302 303 304 305 306 307 308 309 310 311 312 313 314 315
          316 317 318 319 320 321 322 323 324 325 326 327 328 329 330
          331 332 333 334 335 336 337 338 339 340 341 342 343 344 345
          346 347 348 349 350 351 352 353 354 355 356 357 358 359 360
          361 362 363 364 365 366 367 368 369 370 371 372 373 374 375
          376 377 378 379 380 381 382 383 384 385 386 387 388 389 390
          391 392 393 394 395 396 397 398 399 400 401 402 403 404 405
          406 407 408 409 410 411 412 413 414 415 416 417 418 419 420
          421 422 423 424 425 426 427 428 429 430 431 432 433 434 435
          436 437 438 439 440 441 442 443 444 445 446 447 448 449 450
          451 452 453 454 455 456 457 458 459 460 461 462 463 464 465
          466 467 468 469 470 471 472 473 474 475 476 477 478 479 480
          481 482 483 484 485 486 487 488 489 490 491 492 493 494 495
          496 497 498 499 500 501 502 503 504 505 506 507 508 509 510
          511 512 513 514 515 516 517 518 519 520 521 522 523 524 525
          526 527 528 529 530 531 532 533 534 535 536 537 538 539 540
          541 542 543 544 545 546 547 548 549 550 551 552 553 554 555
          556 557 558 559 560 561 562 563 564 565 566 567 568 569 570
          571 572 573 574 575 576 577 578 579 580 581 582 583 584 585
          586 587 588 589 590 591 592 593 594 595 596 597 598 599 600
          601 602 603 604 605 606 607 608 609 610 611 612 613 614 615
          616 617 618 619 620 621 622 623 624 625 626 627 628 629 630
          631 632 633 634 635 636 637 638 639 640 641 642 643 644 645
          646 647 648 649 650 651 652 653 654 655 656 657 658 659 660
          661 662 663 664 665 666 667 668 669 670 671 672 673 674 675
          676 677 678 679 680 681 682 683 684 685 686 687 688 689 690
          691 692 693 694 695 696 697 698 699 700 701 702 703 704 705
          706 707 708 709 710 711 712 713 714 715 716 717 718 719 720
          721 722 723 724 725 726 727 728 729 730 731 732 733 734 735
          736 737 738 739 740 741 742 743 744 745 746 747 748 749 750
          751 752 753 754 755 756 757 758 759 760 761 762 763 764 765
          766 767 768 769 770 771 772 773 774 775 776 777 778 779 780
          781 782 783 784 785 786 787 788 789 790 791 792 793 794 795
          796 797 798 799 800 801 802 803 804 805 806 807 808 809 810
          811 812 813 814 815 816 817 818 819 820 821 822 823 824 825
          826 827 828 829 830 831 832 833 834 835 836 837 838 839 840
          841 842 843 844 845 846 847 848 849 850 851 852 853 854 855
          856 857 858 859 860 861 862 863 864 865 866 867 868 869 870
          871 872 873 874 875 876 877 878 879 880 881 882 883 884 885
          886 887 888 889 890 891 892 893 894 895 896 897 898 899 900
          901 902 903 904 905 906 907 908 909 910 911 912 913 914 915
          916 917 918 919 920 921 922 923 924 925 926 927 928 929 930
          931 932 933 934 935 936 937 938 939 940 941 942 943 944 945
          946 947 948 949 950 951 952 953 954 955 956 957 958 959 960
          961 962 963 964 965 966 967 968 969 970 971 972 973 974 975
          976 977 978 979 980 981 982 983 984 985 986 987 988 989 990
          991 992 993 994 995 996 997 998 999 1000 1001 1002 1003 1004
          1005 1006 1007 1008 1009 1010 1011 1012 1013 1014 1015 1016
          1017 1018 1019 1020 1021 1022 1023 1024 1025 1026 1027 1028
          1029 1030 1031 1032 1033 1034 1035 1036 1037 1038 1039 1040
          1041 1042 1043 1044 1045 1046 1047 1048 1049 1050 1051 1052
          1053 1054 1055 1056 1057 1058 1059 1060 1061 1062 1063 1064
          1065 1066 1067 1068 1069 1070 1071 1072 1073 1074 1075 1076
          1077 1078 1079 1080 1081 1082 1083 1084 1085 1086 1087 1088
          1089 1090 1091 1092 1093 1094 1095 1096 1097 1098 1099 1100
          1101 1102 1103 1104 1105 1106 1107 1108 1109 1110 1111 1112
          1113 1114 1115 1116 1117 1118 1119 1120 1121 1122 1123 1124
          1125 1126 1127 1128 1129 1130 1131 1132 1133 1134 1135 1136
          1137 1138 1139 1140 1141 1142 1143 1144 1145 1146 1147 1148
          1149 1150 1151 1152 1153 1154 1155 1156 1157 1158 1159 1160
          1161 1162 1163 1164 1165 1166 1167 1168 1169 1170 1171 1172
          1173 1174 1175 1176 1177 1178 1179 1180 1181 1182 1183 1184
          1185 1186 1187 1188 1189 1190 1191 1192 1193 1194 1195 1196
          1197 1198 1199 1200 1201 1202 1203 1204 1205 1206 1207 1208
          1209 1210 1211 1212 1213 1214 1215 1216 1217 1218 1219 1220
          1221 1222 1223 1224 1225 1226 1227 1228 1229 1230 1231 1232
          1233 1234 1235 1236 1237 1238 1239 1240 1241 1242 1243 1244
          1245 1246 1247 1248 1249 1250 1251 1252 1253 1254 1255 1256
          1257 1258 1259 1260 1261 1262 1263 1264 1265 1266 1267 1268
          1269 1270 1271 1272 1273 1274 1275 1276 1277 1278 1279 1280
          1281 1282 1283 1284 1285 1286 1287 1288 1289 1290 1291 1292
          1293 1294 1295 1296 1297 1298 1299 1300 1301 1302 1303 1304
          1305 1306 1307 1308 1309 1310 1311 1312 1313 1314 1315 1316
          1317 1318 1319 1320 1321 1322 1323 1324 1325 1326 1327 1328
          1329 1330 1331 1332 1333 1334 1335 1336 1337 1338 1339 1340
          1341 1342 1343 1344 1345 1346 1347 1348 1349 1350 1351 1352
          1353 1354 1355 1356 1357 1358 1359 1360 1361 1362 1363 1364
          1365 1366 1367 1368 1369 1370 1371 1372 1373 1374 1375 1376
          1377 1378 1379 1380 1381 1382 1383 1384 1385 1386 1387 1388
          1389 1390 1391 1392 1393 1394 1395 1396 1397 1398 1399 1400
          1401 1402 1403 1404 1405 1406 1407 1408 1409 1410 1411 1412
          1413 1414 1415 1416 1417 1418 1419 1420 1421 1422 1423 1424
          1425 1426 1427 1428 1429 1430 1431 1432 1433 1434 1435 1436
          1437 1438 1439 1440 1441 1442 1443 1444 1445 1446 1447 1448
          1449 1450 1451 1452 1453 1454 1455 1456 1457 1458 1459 1460
          1461 1462 1463 1464 1465 1466 1467 1468 1469 1470 1471 1472
          1473 1474 1475 1476 1477 1478 1479 1480 1481 1482 1483 1484
          1485 1486 1487 1488 1489 1490 1491 1492 1493 1494 1495 1496
          1497 1498 1499 1500 1501 1502 1503 1504 1505 1506 1507 1508
          1509 1510 1511 1512 1513 1514 1515 1516 1517 1518 1519 1520
          1521 1522 1523 1524 1525 1526 1527 1528 1529 1530 1531 1532
          1533 1534 1535 1536 1537 1538 1539 1540 1541 1542 1543 1544
          1545 1546 1547 1548 1549 1550 1551 1552 1553 1554 1555 1556
          1557 1558 1559 1560 1561 1562 1563 1564 1565 1566 1567 1568
          1569 1570 1571 1572 1573 1574 1575 1576 1577 1578 1579 1580
          1581 1582 1583 1584 1585 1586 1587 1588 1589 1590 1591 1592
          1593 1594 1595 1596 1597 1598 1599 1600 1601 1602 1603 1604
          1605 1606 1607 1608 1609 1610 1611 1612 1613 1614 1615 1616
          1617 1618 1619 1620 1621 1622 1623 1624 1625 1626 1627 1628
          1629 1630 1631 1632 1633 1634 1635 1636 1637 1638 1639 1640
          1641 1642 1643 1644 1645 1646 1647 1648 1649 1650 1651 1652
          1653 1654 1655 1656 1657 1658 1659 1660 1661 1662 1663 1664
          1665 1666 1667 1668 1669 1670 1671 1672 1673 1674 1675 1676
          1677 1678 1679 1680 1681 1682 1683 1684 1685 1686 1687 1688
          1689 1690 1691 1692 1693 1694 1695 1696 1697 1698 1699 1700
          1701 1702 1703 1704 1705 1706 1707 1708 1709 1710 1711 1712
          1713 1714 1715 1716 1717 1718 1719 1720 1721 1722 1723 1724
          1725 1726 1727 1728 1729 1730 1731 1732 1733 1734 1735 1736
          1737 1738 1739 1740 1741 1742 1743 1744 1745 1746 1747 1748
          1749 1750 1751 1752 1753 1754 1755 1756 1757 1758 1759 1760
          1761 1762 1763 1764 1765 1766 1767 1768 1769 1770 1771 1772
          1773 1774 1775 1776 1777 1778 1779 1780 1781 1782 1783 1784
          1785 1786 1787 1788 1789 1790 1791 1792 1793 1794 1795 1796
          1797 1798 1799 1800 1801 1802 1803 1804 1805 1806 1807 1808
          1809 1810 1811 1812 1813 1814 1815 1816 1817 1818 1819 1820
          1821 1822 1823 1824 1825 1826 1827 1828 1829 1830 1831 1832
          1833 1834 1835 1836 1837 1838 1839 1840 1841 1842 1843 1844
          1845 1846 1847 1848 1849 1850 1851 1852 1853 1854 1855 1856
          1857 1858 1859 1860 1861 1862 1863 1864 1865 1866 1867 1868
          1869 1870 1871 1872 1873 1874 1875 1876 1877 1878 1879 1880
          1881 1882 1883 1884 1885 1886 1887 1888 1889 1890 1891 1892
          1893 1894 1895 1896 1897 1898 1899 1900 1901 1902 1903 1904
          1905 1906 1907 1908 1909 1910 1911 1912 1913 1914 1915 1916
          1917 1918 1919 1920 1921 1922 1923 1924 1925 1926 1927 1928
          1929 1930 1931 1932 1933 1934 1935 1936 1937 1938 1939 1940
          1941 1942 1943 1944 1945 1946 1947 1948 1949 1950 1951 1952
          1953 1954 1955 1956 1957 1958 1959 1960 1961 1962 1963 1964
          1965 1966 1967 1968 1969 1970 1971 1972 1973 1974 1975 1976
          1977 1978 1979 1980 1981 1982 1983 1984 1985 1986 1987 1988
          1989 1990 1991 1992 1993 1994 1995 1996 1997 1998 1999 2000
          2001 2002 2003 2004 2005 2006 2007 2008 2009 2010 2011 2012
          2013 2014 2015 2016 2017 2018 2019 2020 2021 2022 2023 2024
          2025 2026 2027 2028 2029 2030 2031 2032 2033 2034 2035 2036
          2037 2038 2039 2040 2041 2042 2043 2044 2045 2046 2047 2048
          2049 2050 2051 2052 2053 2054 2055 2056 2057 2058 2059 2060
          2061 2062 2063 2064 2065 2066 2067 2068 2069 2070 2071 2072
          2073 2074 2075 2076 2077 2078 2079 2080 2081 2082 2083 2084
          2085 2086 2087 2088 2089 2090 2091 2092 2093 2094 2095 2096
          2097 2098 2099 2100 2101 2102 2103 2104 2105 2106 2107 2108
          2109 2110 2111 2112 2113 2114 2115 2116 2117 2118 2119 2120
          2121 2122 2123 2124 2125 2126 2127 2128 2129 2130 2131 2132
          2133 2134 2135 2136 2137 2138 2139 2140 2141 2142 2143 2144
          2145 2146 2147 2148 2149 2150 2151 2152 2153 2154 2155 2156
          2157 2158 2159 2160 2161 2162 2163 2164 2165 2166 2167 2168
          2169 2170 2171 2172 2173 2174 2175 2176 2177 2178 2179 2180
          2181 2182 2183 2184 2185 2186 2187 2188 2189 2190 2191 2192
          2193 2194 2195 2196 2197 2198 2199 2200 2201 2202 2203 2204
          2205 2206 2207 2208 2209 2210 2211 2212 2213 2214 2215 2216
          2217 2218 2219 2220 2221 2222 2223 2224 2225 2226 2227 2228
          2229 2230 2231 2232 2233 2234 2235 2236 2237 2238 2239 2240
          2241 2242 2243 2244 2245 2246 2247 2248 2249 2250 2251 2252
          2253 2254 2255 2256 2257 2258 2259 2260 2261 2262 2263 2264
          2265 2266 2267 2268 2269 2270 2271 2272 2273 2274 2275 2276
          2277 2278 2279 2280 2281 2282 2283 2284 2285 2286 2287 2288
          2289 2290 2291 2292 2293 2294 2295 2296 2297 2298 2299 2300
          2301 2302 2303 2304 2305 2306 2307 2308 2309 2310 2311 2312
          2313 2314 2315 2316 2317 2318 2319 2320 2321 2322 2323 2324
          2325 2326 2327 2328 2329 2330 2331 2332 2333 2334 2335 2336
          2337 2338 2339 2340 2341 2342 2343 2344 2345 2346 2347 2348
          2349 2350 2351 2352 2353 2354 2355 2356 2357 2358 2359 2360
          2361 2362 2363 2364 2365 2366 2367 2368 2369 2370 2371 2372
          2373 2374 2375 2376 2377 2378 2379 2380 2381 2382 2383 2384
          2385 2386 2387 2388 2389 2390 2391 2392 2393 2394 2395 2396
          2397 2398 2399 2400 2401 2402 2403 2404 2405 2406 2407 2408
          2409 2410 2411 2412 2413 2414 2415 2416 2417 2418 2419 2420
          2421 2422 2423 2424 2425 2426 2427 2428 2429 2430 2431 2432
          2433 2434 2435 2436 2437 2438 2439 2440 2441 2442 2443 2444
          2445 2446 2447 2448 2449 2450 2451 2452 2453 2454 2455 2456
          2457 2458 2459 2460 2461 2462 2463 2464 2465 2466 2467 2468
          2469 2470 2471 2472 2473 2474 2475 2476 2477 2478 2479 2480
          2481 2482 2483 2484 2485 2486 2487 2488 2489 2490 2491 2492
          2493 2494 2495 2496 2497 2498 2499 2500 2501 2502 2503 2504
          2505 2506 2507 2508 2509 2510 2511 2512 2513 2514 2515 2516
          2517 2518 2519 2520 2521 2522 2523 2524 2525 2526 2527 2528
          2529 2530 2531 2532 2533 2534 2535 2536 2537 2538 2539 2540
          2541 2542 2543 2544 2545 2546 2547 2548 2549 2550 2551 2552
          2553 2554 2555 2556 2557 2558 2559 2560 2561 2562 2563 2564
          2565 2566 2567 2568 2569 2570 2571 2572 2573 2574 2575 2576
          2577 2578 2579 2580 2581 2582 2583 2584 2585 2586 2587 2588
          2589 2590 2591 2592 2593 2594 2595 2596 2597 2598 2599 2600
          2601 2602 2603 2604

  element sets:
    Instance name: PART-1-1
      element set name: SET-1
        number of elements: 10002
        elements: 
          1 2 3 4 5 6 7 8 9 10 11 12 13 14 15 16 17 18 19 20 21 22 23 24
          25 26 27 28 29 30 31 32 33 34 35 36 37 38 39 40 41 42 43 44 45
          46 47 48 49 50 51 52 53 54 55 56 57 58 59 60 61 62 63 64 65 66
          67 68 69 70 71 72 73 74 75 76 77 78 79 80 81 82 83 84 85 86 87
          88 89 90 91 92 93 94 95 96 97 98 99 100 101 102 103 104 105
          106 107 108 109 110 111 112 113 114 115 116 117 118 119 120
          121 122 123 124 125 126 127 128 129 130 131 132 133 134 135
          136 137 138 139 140 141 142 143 144 145 146 147 148 149 150
          151 152 153 154 155 156 157 158 159 160 161 162 163 164 165
          166 167 168 169 170 171 172 173 174 175 176 177 178 179 180
          181 182 183 184 185 186 187 188 189 190 191 192 193 194 195
          196 197 198 199 200 201 202 203 204 205 206 207 208 209 210
          211 212 213 214 215 216 217 218 219 220 221 222 223 224 225
          226 227 228 229 230 231 232 233 234 235 236 237 238 239 240
          241 242 243 244 245 246 247 248 249 250 251 252 253 254 255
          256 257 258 259 260 261 262 263 264 265 266 267 268 269 270
          271 272 273 274 275 276 277 278 279 280 281 282 283 284 285
          286 287 288 289 290 291 292 293 294 295 296 297 298 299 300
          301 302 303 304 305 306 307 308 309 310 311 312 313 314 315
          316 317 318 319 320 321 322 323 324 325 326 327 328 329 330
          331 332 333 334 335 336 337 338 339 340 341 342 343 344 345
          346 347 348 349 350 351 352 353 354 355 356 357 358 359 360
          361 362 363 364 365 366 367 368 369 370 371 372 373 374 375
          376 377 378 379 380 381 382 383 384 385 386 387 388 389 390
          391 392 393 394 395 396 397 398 399 400 401 402 403 404 405
          406 407 408 409 410 411 412 413 414 415 416 417 418 419 420
          421 422 423 424 425 426 427 428 429 430 431 432 433 434 435
          436 437 438 439 440 441 442 443 444 445 446 447 448 449 450
          451 452 453 454 455 456 457 458 459 460 461 462 463 464 465
          466 467 468 469 470 471 472 473 474 475 476 477 478 479 480
          481 482 483 484 485 486 487 488 489 490 491 492 493 494 495
          496 497 498 499 500 501 502 503 504 505 506 507 508 509 510
          511 512 513 514 515 516 517 518 519 520 521 522 523 524 525
          526 527 528 529 530 531 532 533 534 535 536 537 538 539 540
          541 542 543 544 545 546 547 548 549 550 551 552 553 554 555
          556 557 558 559 560 561 562 563 564 565 566 567 568 569 570
          571 572 573 574 575 576 577 578 579 580 581 582 583 584 585
          586 587 588 589 590 591 592 593 594 595 596 597 598 599 600
          601 602 603 604 605 606 607 608 609 610 611 612 613 614 615
          616 617 618 619 620 621 622 623 624 625 626 627 628 629 630
          631 632 633 634 635 636 637 638 639 640 641 642 643 644 645
          646 647 648 649 650 651 652 653 654 655 656 657 658 659 660
          661 662 663 664 665 666 667 668 669 670 671 672 673 674 675
          676 677 678 679 680 681 682 683 684 685 686 687 688 689 690
          691 692 693 694 695 696 697 698 699 700 701 702 703 704 705
          706 707 708 709 710 711 712 713 714 715 716 717 718 719 720
          721 722 723 724 725 726 727 728 729 730 731 732 733 734 735
          736 737 738 739 740 741 742 743 744 745 746 747 748 749 750
          751 752 753 754 755 756 757 758 759 760 761 762 763 764 765
          766 767 768 769 770 771 772 773 774 775 776 777 778 779 780
          781 782 783 784 785 786 787 788 789 790 791 792 793 794 795
          796 797 798 799 800 801 802 803 804 805 806 807 808 809 810
          811 812 813 814 815 816 817 818 819 820 821 822 823 824 825
          826 827 828 829 830 831 832 833 834 835 836 837 838 839 840
          841 842 843 844 845 846 847 848 849 850 851 852 853 854 855
          856 857 858 859 860 861 862 863 864 865 866 867 868 869 870
          871 872 873 874 875 876 877 878 879 880 881 882 883 884 885
          886 887 888 889 890 891 892 893 894 895 896 897 898 899 900
          901 902 903 904 905 906 907 908 909 910 911 912 913 914 915
          916 917 918 919 920 921 922 923 924 925 926 927 928 929 930
          931 932 933 934 935 936 937 938 939 940 941 942 943 944 945
          946 947 948 949 950 951 952 953 954 955 956 957 958 959 960
          961 962 963 964 965 966 967 968 969 970 971 972 973 974 975
          976 977 978 979 980 981 982 983 984 985 986 987 988 989 990
          991 992 993 994 995 996 997 998 999 1000 1001 1002 1003 1004
          1005 1006 1007 1008 1009 1010 1011 1012 1013 1014 1015 1016
          1017 1018 1019 1020 1021 1022 1023 1024 1025 1026 1027 1028
          1029 1030 1031 1032 1033 1034 1035 1036 1037 1038 1039 1040
          1041 1042 1043 1044 1045 1046 1047 1048 1049 1050 1051 1052
          1053 1054 1055 1056 1057 1058 1059 1060 1061 1062 1063 1064
          1065 1066 1067 1068 1069 1070 1071 1072 1073 1074 1075 1076
          1077 1078 1079 1080 1081 1082 1083 1084 1085 1086 1087 1088
          1089 1090 1091 1092 1093 1094 1095 1096 1097 1098 1099 1100
          1101 1102 1103 1104 1105 1106 1107 1108 1109 1110 1111 1112
          1113 1114 1115 1116 1117 1118 1119 1120 1121 1122 1123 1124
          1125 1126 1127 1128 1129 1130 1131 1132 1133 1134 1135 1136
          1137 1138 1139 1140 1141 1142 1143 1144 1145 1146 1147 1148
          1149 1150 1151 1152 1153 1154 1155 1156 1157 1158 1159 1160
          1161 1162 1163 1164 1165 1166 1167 1168 1169 1170 1171 1172
          1173 1174 1175 1176 1177 1178 1179 1180 1181 1182 1183 1184
          1185 1186 1187 1188 1189 1190 1191 1192 1193 1194 1195 1196
          1197 1198 1199 1200 1201 1202 1203 1204 1205 1206 1207 1208
          1209 1210 1211 1212 1213 1214 1215 1216 1217 1218 1219 1220
          1221 1222 1223 1224 1225 1226 1227 1228 1229 1230 1231 1232
          1233 1234 1235 1236 1237 1238 1239 1240 1241 1242 1243 1244
          1245 1246 1247 1248 1249 1250 1251 1252 1253 1254 1255 1256
          1257 1258 1259 1260 1261 1262 1263 1264 1265 1266 1267 1268
          1269 1270 1271 1272 1273 1274 1275 1276 1277 1278 1279 1280
          1281 1282 1283 1284 1285 1286 1287 1288 1289 1290 1291 1292
          1293 1294 1295 1296 1297 1298 1299 1300 1301 1302 1303 1304
          1305 1306 1307 1308 1309 1310 1311 1312 1313 1314 1315 1316
          1317 1318 1319 1320 1321 1322 1323 1324 1325 1326 1327 1328
          1329 1330 1331 1332 1333 1334 1335 1336 1337 1338 1339 1340
          1341 1342 1343 1344 1345 1346 1347 1348 1349 1350 1351 1352
          1353 1354 1355 1356 1357 1358 1359 1360 1361 1362 1363 1364
          1365 1366 1367 1368 1369 1370 1371 1372 1373 1374 1375 1376
          1377 1378 1379 1380 1381 1382 1383 1384 1385 1386 1387 1388
          1389 1390 1391 1392 1393 1394 1395 1396 1397 1398 1399 1400
          1401 1402 1403 1404 1405 1406 1407 1408 1409 1410 1411 1412
          1413 1414 1415 1416 1417 1418 1419 1420 1421 1422 1423 1424
          1425 1426 1427 1428 1429 1430 1431 1432 1433 1434 1435 1436
          1437 1438 1439 1440 1441 1442 1443 1444 1445 1446 1447 1448
          1449 1450 1451 1452 1453 1454 1455 1456 1457 1458 1459 1460
          1461 1462 1463 1464 1465 1466 1467 1468 1469 1470 1471 1472
          1473 1474 1475 1476 1477 1478 1479 1480 1481 1482 1483 1484
          1485 1486 1487 1488 1489 1490 1491 1492 1493 1494 1495 1496
          1497 1498 1499 1500 1501 1502 1503 1504 1505 1506 1507 1508
          1509 1510 1511 1512 1513 1514 1515 1516 1517 1518 1519 1520
          1521 1522 1523 1524 1525 1526 1527 1528 1529 1530 1531 1532
          1533 1534 1535 1536 1537 1538 1539 1540 1541 1542 1543 1544
          1545 1546 1547 1548 1549 1550 1551 1552 1553 1554 1555 1556
          1557 1558 1559 1560 1561 1562 1563 1564 1565 1566 1567 1568
          1569 1570 1571 1572 1573 1574 1575 1576 1577 1578 1579 1580
          1581 1582 1583 1584 1585 1586 1587 1588 1589 1590 1591 1592
          1593 1594 1595 1596 1597 1598 1599 1600 1601 1602 1603 1604
          1605 1606 1607 1608 1609 1610 1611 1612 1613 1614 1615 1616
          1617 1618 1619 1620 1621 1622 1623 1624 1625 1626 1627 1628
          1629 1630 1631 1632 1633 1634 1635 1636 1637 1638 1639 1640
          1641 1642 1643 1644 1645 1646 1647 1648 1649 1650 1651 1652
          1653 1654 1655 1656 1657 1658 1659 1660 1661 1662 1663 1664
          1665 1666 1667 1668 1669 1670 1671 1672 1673 1674 1675 1676
          1677 1678 1679 1680 1681 1682 1683 1684 1685 1686 1687 1688
          1689 1690 1691 1692 1693 1694 1695 1696 1697 1698 1699 1700
          1701 1702 1703 1704 1705 1706 1707 1708 1709 1710 1711 1712
          1713 1714 1715 1716 1717 1718 1719 1720 1721 1722 1723 1724
          1725 1726 1727 1728 1729 1730 1731 1732 1733 1734 1735 1736
          1737 1738 1739 1740 1741 1742 1743 1744 1745 1746 1747 1748
          1749 1750 1751 1752 1753 1754 1755 1756 1757 1758 1759 1760
          1761 1762 1763 1764 1765 1766 1767 1768 1769 1770 1771 1772
          1773 1774 1775 1776 1777 1778 1779 1780 1781 1782 1783 1784
          1785 1786 1787 1788 1789 1790 1791 1792 1793 1794 1795 1796
          1797 1798 1799 1800 1801 1802 1803 1804 1805 1806 1807 1808
          1809 1810 1811 1812 1813 1814 1815 1816 1817 1818 1819 1820
          1821 1822 1823 1824 1825 1826 1827 1828 1829 1830 1831 1832
          1833 1834 1835 1836 1837 1838 1839 1840 1841 1842 1843 1844
          1845 1846 1847 1848 1849 1850 1851 1852 1853 1854 1855 1856
          1857 1858 1859 1860 1861 1862 1863 1864 1865 1866 1867 1868
          1869 1870 1871 1872 1873 1874 1875 1876 1877 1878 1879 1880
          1881 1882 1883 1884 1885 1886 1887 1888 1889 1890 1891 1892
          1893 1894 1895 1896 1897 1898 1899 1900 1901 1902 1903 1904
          1905 1906 1907 1908 1909 1910 1911 1912 1913 1914 1915 1916
          1917 1918 1919 1920 1921 1922 1923 1924 1925 1926 1927 1928
          1929 1930 1931 1932 1933 1934 1935 1936 1937 1938 1939 1940
          1941 1942 1943 1944 1945 1946 1947 1948 1949 1950 1951 1952
          1953 1954 1955 1956 1957 1958 1959 1960 1961 1962 1963 1964
          1965 1966 1967 1968 1969 1970 1971 1972 1973 1974 1975 1976
          1977 1978 1979 1980 1981 1982 1983 1984 1985 1986 1987 1988
          1989 1990 1991 1992 1993 1994 1995 1996 1997 1998 1999 2000
          2001 2002 2003 2004 2005 2006 2007 2008 2009 2010 2011 2012
          2013 2014 2015 2016 2017 2018 2019 2020 2021 2022 2023 2024
          2025 2026 2027 2028 2029 2030 2031 2032 2033 2034 2035 2036
          2037 2038 2039 2040 2041 2042 2043 2044 2045 2046 2047 2048
          2049 2050 2051 2052 2053 2054 2055 2056 2057 2058 2059 2060
          2061 2062 2063 2064 2065 2066 2067 2068 2069 2070 2071 2072
          2073 2074 2075 2076 2077 2078 2079 2080 2081 2082 2083 2084
          2085 2086 2087 2088 2089 2090 2091 2092 2093 2094 2095 2096
          2097 2098 2099 2100 2101 2102 2103 2104 2105 2106 2107 2108
          2109 2110 2111 2112 2113 2114 2115 2116 2117 2118 2119 2120
          2121 2122 2123 2124 2125 2126 2127 2128 2129 2130 2131 2132
          2133 2134 2135 2136 2137 2138 2139 2140 2141 2142 2143 2144
          2145 2146 2147 2148 2149 2150 2151 2152 2153 2154 2155 2156
          2157 2158 2159 2160 2161 2162 2163 2164 2165 2166 2167 2168
          2169 2170 2171 2172 2173 2174 2175 2176 2177 2178 2179 2180
          2181 2182 2183 2184 2185 2186 2187 2188 2189 2190 2191 2192
          2193 2194 2195 2196 2197 2198 2199 2200 2201 2202 2203 2204
          2205 2206 2207 2208 2209 2210 2211 2212 2213 2214 2215 2216
          2217 2218 2219 2220 2221 2222 2223 2224 2225 2226 2227 2228
          2229 2230 2231 2232 2233 2234 2235 2236 2237 2238 2239 2240
          2241 2242 2243 2244 2245 2246 2247 2248 2249 2250 2251 2252
          2253 2254 2255 2256 2257 2258 2259 2260 2261 2262 2263 2264
          2265 2266 2267 2268 2269 2270 2271 2272 2273 2274 2275 2276
          2277 2278 2279 2280 2281 2282 2283 2284 2285 2286 2287 2288
          2289 2290 2291 2292 2293 2294 2295 2296 2297 2298 2299 2300
          2301 2302 2303 2304 2305 2306 2307 2308 2309 2310 2311 2312
          2313 2314 2315 2316 2317 2318 2319 2320 2321 2322 2323 2324
          2325 2326 2327 2328 2329 2330 2331 2332 2333 2334 2335 2336
          2337 2338 2339 2340 2341 2342 2343 2344 2345 2346 2347 2348
          2349 2350 2351 2352 2353 2354 2355 2356 2357 2358 2359 2360
          2361 2362 2363 2364 2365 2366 2367 2368 2369 2370 2371 2372
          2373 2374 2375 2376 2377 2378 2379 2380 2381 2382 2383 2384
          2385 2386 2387 2388 2389 2390 2391 2392 2393 2394 2395 2396
          2397 2398 2399 2400 2401 2402 2403 2404 2405 2406 2407 2408
          2409 2410 2411 2412 2413 2414 2415 2416 2417 2418 2419 2420
          2421 2422 2423 2424 2425 2426 2427 2428 2429 2430 2431 2432
          2433 2434 2435 2436 2437 2438 2439 2440 2441 2442 2443 2444
          2445 2446 2447 2448 2449 2450 2451 2452 2453 2454 2455 2456
          2457 2458 2459 2460 2461 2462 2463 2464 2465 2466 2467 2468
          2469 2470 2471 2472 2473 2474 2475 2476 2477 2478 2479 2480
          2481 2482 2483 2484 2485 2486 2487 2488 2489 2490 2491 2492
          2493 2494 2495 2496 2497 2498 2499 2500 2501 2502 2503 2504
          2505 2506 2507 2508 2509 2510 2511 2512 2513 2514 2515 2516
          2517 2518 2519 2520 2521 2522 2523 2524 2525 2526 2527 2528
          2529 2530 2531 2532 2533 2534 2535 2536 2537 2538 2539 2540
          2541 2542 2543 2544 2545 2546 2547 2548 2549 2550 2551 2552
          2553 2554 2555 2556 2557 2558 2559 2560 2561 2562 2563 2564
          2565 2566 2567 2568 2569 2570 2571 2572 2573 2574 2575 2576
          2577 2578 2579 2580 2581 2582 2583 2584 2585 2586 2587 2588
          2589 2590 2591 2592 2593 2594 2595 2596 2597 2598 2599 2600
          2601 2602 2603 2604 2605 2606 2607 2608 2609 2610 2611 2612
          2613 2614 2615 2616 2617 2618 2619 2620 2621 2622 2623 2624
          2625 2626 2627 2628 2629 2630 2631 2632 2633 2634 2635 2636
          2637 2638 2639 2640 2641 2642 2643 2644 2645 2646 2647 2648
          2649 2650 2651 2652 2653 2654 2655 2656 2657 2658 2659 2660
          2661 2662 2663 2664 2665 2666 2667 2668 2669 2670 2671 2672
          2673 2674 2675 2676 2677 2678 2679 2680 2681 2682 2683 2684
          2685 2686 2687 2688 2689 2690 2691 2692 2693 2694 2695 2696
          2697 2698 2699 2700 2701 2702 2703 2704 2705 2706 2707 2708
          2709 2710 2711 2712 2713 2714 2715 2716 2717 2718 2719 2720
          2721 2722 2723 2724 2725 2726 2727 2728 2729 2730 2731 2732
          2733 2734 2735 2736 2737 2738 2739 2740 2741 2742 2743 2744
          2745 2746 2747 2748 2749 2750 2751 2752 2753 2754 2755 2756
          2757 2758 2759 2760 2761 2762 2763 2764 2765 2766 2767 2768
          2769 2770 2771 2772 2773 2774 2775 2776 2777 2778 2779 2780
          2781 2782 2783 2784 2785 2786 2787 2788 2789 2790 2791 2792
          2793 2794 2795 2796 2797 2798 2799 2800 2801 2802 2803 2804
          2805 2806 2807 2808 2809 2810 2811 2812 2813 2814 2815 2816
          2817 2818 2819 2820 2821 2822 2823 2824 2825 2826 2827 2828
          2829 2830 2831 2832 2833 2834 2835 2836 2837 2838 2839 2840
          2841 2842 2843 2844 2845 2846 2847 2848 2849 2850 2851 2852
          2853 2854 2855 2856 2857 2858 2859 2860 2861 2862 2863 2864
          2865 2866 2867 2868 2869 2870 2871 2872 2873 2874 2875 2876
          2877 2878 2879 2880 2881 2882 2883 2884 2885 2886 2887 2888
          2889 2890 2891 2892 2893 2894 2895 2896 2897 2898 2899 2900
          2901 2902 2903 2904 2905 2906 2907 2908 2909 2910 2911 2912
          2913 2914 2915 2916 2917 2918 2919 2920 2921 2922 2923 2924
          2925 2926 2927 2928 2929 2930 2931 2932 2933 2934 2935 2936
          2937 2938 2939 2940 2941 2942 2943 2944 2945 2946 2947 2948
          2949 2950 2951 2952 2953 2954 2955 2956 2957 2958 2959 2960
          2961 2962 2963 2964 2965 2966 2967 2968 2969 2970 2971 2972
          2973 2974 2975 2976 2977 2978 2979 2980 2981 2982 2983 2984
          2985 2986 2987 2988 2989 2990 2991 2992 2993 2994 2995 2996
          2997 2998 2999 3000 3001 3002 3003 3004 3005 3006 3007 3008
          3009 3010 3011 3012 3013 3014 3015 3016 3017 3018 3019 3020
          3021 3022 3023 3024 3025 3026 3027 3028 3029 3030 3031 3032
          3033 3034 3035 3036 3037 3038 3039 3040 3041 3042 3043 3044
          3045 3046 3047 3048 3049 3050 3051 3052 3053 3054 3055 3056
          3057 3058 3059 3060 3061 3062 3063 3064 3065 3066 3067 3068
          3069 3070 3071 3072 3073 3074 3075 3076 3077 3078 3079 3080
          3081 3082 3083 3084 3085 3086 3087 3088 3089 3090 3091 3092
          3093 3094 3095 3096 3097 3098 3099 3100 3101 3102 3103 3104
          3105 3106 3107 3108 3109 3110 3111 3112 3113 3114 3115 3116
          3117 3118 3119 3120 3121 3122 3123 3124 3125 3126 3127 3128
          3129 3130 3131 3132 3133 3134 3135 3136 3137 3138 3139 3140
          3141 3142 3143 3144 3145 3146 3147 3148 3149 3150 3151 3152
          3153 3154 3155 3156 3157 3158 3159 3160 3161 3162 3163 3164
          3165 3166 3167 3168 3169 3170 3171 3172 3173 3174 3175 3176
          3177 3178 3179 3180 3181 3182 3183 3184 3185 3186 3187 3188
          3189 3190 3191 3192 3193 3194 3195 3196 3197 3198 3199 3200
          3201 3202 3203 3204 3205 3206 3207 3208 3209 3210 3211 3212
          3213 3214 3215 3216 3217 3218 3219 3220 3221 3222 3223 3224
          3225 3226 3227 3228 3229 3230 3231 3232 3233 3234 3235 3236
          3237 3238 3239 3240 3241 3242 3243 3244 3245 3246 3247 3248
          3249 3250 3251 3252 3253 3254 3255 3256 3257 3258 3259 3260
          3261 3262 3263 3264 3265 3266 3267 3268 3269 3270 3271 3272
          3273 3274 3275 3276 3277 3278 3279 3280 3281 3282 3283 3284
          3285 3286 3287 3288 3289 3290 3291 3292 3293 3294 3295 3296
          3297 3298 3299 3300 3301 3302 3303 3304 3305 3306 3307 3308
          3309 3310 3311 3312 3313 3314 3315 3316 3317 3318 3319 3320
          3321 3322 3323 3324 3325 3326 3327 3328 3329 3330 3331 3332
          3333 3334 3335 3336 3337 3338 3339 3340 3341 3342 3343 3344
          3345 3346 3347 3348 3349 3350 3351 3352 3353 3354 3355 3356
          3357 3358 3359 3360 3361 3362 3363 3364 3365 3366 3367 3368
          3369 3370 3371 3372 3373 3374 3375 3376 3377 3378 3379 3380
          3381 3382 3383 3384 3385 3386 3387 3388 3389 3390 3391 3392
          3393 3394 3395 3396 3397 3398 3399 3400 3401 3402 3403 3404
          3405 3406 3407 3408 3409 3410 3411 3412 3413 3414 3415 3416
          3417 3418 3419 3420 3421 3422 3423 3424 3425 3426 3427 3428
          3429 3430 3431 3432 3433 3434 3435 3436 3437 3438 3439 3440
          3441 3442 3443 3444 3445 3446 3447 3448 3449 3450 3451 3452
          3453 3454 3455 3456 3457 3458 3459 3460 3461 3462 3463 3464
          3465 3466 3467 3468 3469 3470 3471 3472 3473 3474 3475 3476
          3477 3478 3479 3480 3481 3482 3483 3484 3485 3486 3487 3488
          3489 3490 3491 3492 3493 3494 3495 3496 3497 3498 3499 3500
          3501 3502 3503 3504 3505 3506 3507 3508 3509 3510 3511 3512
          3513 3514 3515 3516 3517 3518 3519 3520 3521 3522 3523 3524
          3525 3526 3527 3528 3529 3530 3531 3532 3533 3534 3535 3536
          3537 3538 3539 3540 3541 3542 3543 3544 3545 3546 3547 3548
          3549 3550 3551 3552 3553 3554 3555 3556 3557 3558 3559 3560
          3561 3562 3563 3564 3565 3566 3567 3568 3569 3570 3571 3572
          3573 3574 3575 3576 3577 3578 3579 3580 3581 3582 3583 3584
          3585 3586 3587 3588 3589 3590 3591 3592 3593 3594 3595 3596
          3597 3598 3599 3600 3601 3602 3603 3604 3605 3606 3607 3608
          3609 3610 3611 3612 3613 3614 3615 3616 3617 3618 3619 3620
          3621 3622 3623 3624 3625 3626 3627 3628 3629 3630 3631 3632
          3633 3634 3635 3636 3637 3638 3639 3640 3641 3642 3643 3644
          3645 3646 3647 3648 3649 3650 3651 3652 3653 3654 3655 3656
          3657 3658 3659 3660 3661 3662 3663 3664 3665 3666 3667 3668
          3669 3670 3671 3672 3673 3674 3675 3676 3677 3678 3679 3680
          3681 3682 3683 3684 3685 3686 3687 3688 3689 3690 3691 3692
          3693 3694 3695 3696 3697 3698 3699 3700 3701 3702 3703 3704
          3705 3706 3707 3708 3709 3710 3711 3712 3713 3714 3715 3716
          3717 3718 3719 3720 3721 3722 3723 3724 3725 3726 3727 3728
          3729 3730 3731 3732 3733 3734 3735 3736 3737 3738 3739 3740
          3741 3742 3743 3744 3745 3746 3747 3748 3749 3750 3751 3752
          3753 3754 3755 3756 3757 3758 3759 3760 3761 3762 3763 3764
          3765 3766 3767 3768 3769 3770 3771 3772 3773 3774 3775 3776
          3777 3778 3779 3780 3781 3782 3783 3784 3785 3786 3787 3788
          3789 3790 3791 3792 3793 3794 3795 3796 3797 3798 3799 3800
          3801 3802 3803 3804 3805 3806 3807 3808 3809 3810 3811 3812
          3813 3814 3815 3816 3817 3818 3819 3820 3821 3822 3823 3824
          3825 3826 3827 3828 3829 3830 3831 3832 3833 3834 3835 3836
          3837 3838 3839 3840 3841 3842 3843 3844 3845 3846 3847 3848
          3849 3850 3851 3852 3853 3854 3855 3856 3857 3858 3859 3860
          3861 3862 3863 3864 3865 3866 3867 3868 3869 3870 3871 3872
          3873 3874 3875 3876 3877 3878 3879 3880 3881 3882 3883 3884
          3885 3886 3887 3888 3889 3890 3891 3892 3893 3894 3895 3896
          3897 3898 3899 3900 3901 3902 3903 3904 3905 3906 3907 3908
          3909 3910 3911 3912 3913 3914 3915 3916 3917 3918 3919 3920
          3921 3922 3923 3924 3925 3926 3927 3928 3929 3930 3931 3932
          3933 3934 3935 3936 3937 3938 3939 3940 3941 3942 3943 3944
          3945 3946 3947 3948 3949 3950 3951 3952 3953 3954 3955 3956
          3957 3958 3959 3960 3961 3962 3963 3964 3965 3966 3967 3968
          3969 3970 3971 3972 3973 3974 3975 3976 3977 3978 3979 3980
          3981 3982 3983 3984 3985 3986 3987 3988 3989 3990 3991 3992
          3993 3994 3995 3996 3997 3998 3999 4000 4001 4002 4003 4004
          4005 4006 4007 4008 4009 4010 4011 4012 4013 4014 4015 4016
          4017 4018 4019 4020 4021 4022 4023 4024 4025 4026 4027 4028
          4029 4030 4031 4032 4033 4034 4035 4036 4037 4038 4039 4040
          4041 4042 4043 4044 4045 4046 4047 4048 4049 4050 4051 4052
          4053 4054 4055 4056 4057 4058 4059 4060 4061 4062 4063 4064
          4065 4066 4067 4068 4069 4070 4071 4072 4073 4074 4075 4076
          4077 4078 4079 4080 4081 4082 4083 4084 4085 4086 4087 4088
          4089 4090 4091 4092 4093 4094 4095 4096 4097 4098 4099 4100
          4101 4102 4103 4104 4105 4106 4107 4108 4109 4110 4111 4112
          4113 4114 4115 4116 4117 4118 4119 4120 4121 4122 4123 4124
          4125 4126 4127 4128 4129 4130 4131 4132 4133 4134 4135 4136
          4137 4138 4139 4140 4141 4142 4143 4144 4145 4146 4147 4148
          4149 4150 4151 4152 4153 4154 4155 4156 4157 4158 4159 4160
          4161 4162 4163 4164 4165 4166 4167 4168 4169 4170 4171 4172
          4173 4174 4175 4176 4177 4178 4179 4180 4181 4182 4183 4184
          4185 4186 4187 4188 4189 4190 4191 4192 4193 4194 4195 4196
          4197 4198 4199 4200 4201 4202 4203 4204 4205 4206 4207 4208
          4209 4210 4211 4212 4213 4214 4215 4216 4217 4218 4219 4220
          4221 4222 4223 4224 4225 4226 4227 4228 4229 4230 4231 4232
          4233 4234 4235 4236 4237 4238 4239 4240 4241 4242 4243 4244
          4245 4246 4247 4248 4249 4250 4251 4252 4253 4254 4255 4256
          4257 4258 4259 4260 4261 4262 4263 4264 4265 4266 4267 4268
          4269 4270 4271 4272 4273 4274 4275 4276 4277 4278 4279 4280
          4281 4282 4283 4284 4285 4286 4287 4288 4289 4290 4291 4292
          4293 4294 4295 4296 4297 4298 4299 4300 4301 4302 4303 4304
          4305 4306 4307 4308 4309 4310 4311 4312 4313 4314 4315 4316
          4317 4318 4319 4320 4321 4322 4323 4324 4325 4326 4327 4328
          4329 4330 4331 4332 4333 4334 4335 4336 4337 4338 4339 4340
          4341 4342 4343 4344 4345 4346 4347 4348 4349 4350 4351 4352
          4353 4354 4355 4356 4357 4358 4359 4360 4361 4362 4363 4364
          4365 4366 4367 4368 4369 4370 4371 4372 4373 4374 4375 4376
          4377 4378 4379 4380 4381 4382 4383 4384 4385 4386 4387 4388
          4389 4390 4391 4392 4393 4394 4395 4396 4397 4398 4399 4400
          4401 4402 4403 4404 4405 4406 4407 4408 4409 4410 4411 4412
          4413 4414 4415 4416 4417 4418 4419 4420 4421 4422 4423 4424
          4425 4426 4427 4428 4429 4430 4431 4432 4433 4434 4435 4436
          4437 4438 4439 4440 4441 4442 4443 4444 4445 4446 4447 4448
          4449 4450 4451 4452 4453 4454 4455 4456 4457 4458 4459 4460
          4461 4462 4463 4464 4465 4466 4467 4468 4469 4470 4471 4472
          4473 4474 4475 4476 4477 4478 4479 4480 4481 4482 4483 4484
          4485 4486 4487 4488 4489 4490 4491 4492 4493 4494 4495 4496
          4497 4498 4499 4500 4501 4502 4503 4504 4505 4506 4507 4508
          4509 4510 4511 4512 4513 4514 4515 4516 4517 4518 4519 4520
          4521 4522 4523 4524 4525 4526 4527 4528 4529 4530 4531 4532
          4533 4534 4535 4536 4537 4538 4539 4540 4541 4542 4543 4544
[...]
        137     -3.0942663E-04
        138     -7.2663124E-04
        139     -1.6481052E-03
        140     -8.7616658E-04
        141     -1.3377335E-03
        142     -2.2575091E-04
        143     -1.7519535E-03
        144     -3.5223428E-04
        145     -1.2212267E-04
        146     -1.0754126E-05
        147      1.9541860E-04
        148     -7.3255322E-05
        149     -3.3645268E-04
        150      5.3188699E-04
        151     -4.4153469E-04
        152     -1.0098290E-03
        153     -4.4078630E-04
        154     -2.3969867E-03
        155     -2.0445380E-04
        156     -1.1530584E-03
        157     -1.6383493E-04
        158      4.5179479E-04
        159     -2.6237370E-04
        160      1.1146315E-04
        161      9.0716831E-05
        162     -2.4343545E-05
        163     -3.5403567E-05
        164     -1.1762771E-04
        165     -5.1752193E-04
        166     -5.5803472E-04
        167     -2.9339960E-04
        168     -7.3957384E-04
        169     -1.0330489E-03
        170     -4.7730767E-04
        171     -1.5872480E-03
        172      1.3749063E-03
        186     -9.6727151E-05
        187     -4.9285773E-04
        188     -8.0807483E-04
        189     -5.3181337E-04
        190     -6.1417494E-04
        191      9.0613685E-04
        192     -5.0503420E-04
        193      2.1486738E-04
        194     -8.7393168E-04
        195     -6.3445078E-04
        196     -5.4932063E-04
        285     -1.0203287E-03
        286     -1.4276745E-04
        287     -1.6473700E-04
        288     -2.4803940E-05
        289      2.9741225E-05
        290      6.8203250E-05
        291     -2.3225432E-04
        292     -2.4424563E-05
        293      1.0721546E-04
        294     -1.6285006E-04
        295     -1.8022387E-03
        296     -1.8520433E-03
        297     -1.7431786E-03
        298     -8.3575652E-05
        299     -4.5294731E-04
        300     -1.4921302E-04
        301     -1.9726747E-04
        302      1.6710400E-04
        303      5.6629571E-04
        304     -3.2740918E-04
        305     -1.2426541E-04
        306     -1.5898349E-04
        307     -1.2236538E-04
        308     -1.1592081E-03
        309     -2.6391145E-04
        310     -2.2735830E-03
        311     -1.8539901E-03
        312     -2.7026205E-04
        313     -5.9832382E-04
        314     -3.7604186E-04
        315     -2.2268238E-04
        316      1.3181499E-04
        317      2.3510147E-04
        318      1.3095527E-04
        319     -3.7470836E-04
        320     -1.0223004E-04
        321     -1.8638265E-04
        322     -1.1184749E-03
        323     -8.5378793E-04
        324     -1.5086769E-03
        325     -3.8611043E-04
        326     -1.4062968E-03
        327     -1.2442861E-03
        328      4.7409994E-04
        329     -3.8559092E-04
        330     -4.2848295E-05
        331      5.0568738E-04
        332     -1.6698272E-04
        333      3.3603456E-05
        334     -1.9826205E-04
        335     -5.1185815E-04
        336     -1.1248838E-03
        337     -7.2401232E-04
        338     -9.1934854E-04
        339     -1.7325106E-03
        340     -7.7875672E-04
        341     -4.5837995E-04
        342     -3.3347889E-04
        343     -4.4153147E-05
        344      9.3323154E-05
        345      2.1541297E-04
        346     -2.6983177E-04
        347      6.7032008E-05
        348     -4.0914503E-04
        349     -3.2545633E-04
        350     -6.2402219E-04
        351     -1.7938280E-03
        352     -1.4346721E-03
        353     -8.6298530E-04
        354     -9.4308312E-04
        355      2.7767571E-04
        356     -2.8294259E-04
        357     -2.2017138E-04
        358      3.4636376E-04
        359      3.4568435E-05
        360     -2.4467928E-05
        361     -6.9296067E-05
        362     -4.1518108E-04
        363     -1.0590622E-03
        364     -4.8964044E-04
        365     -3.7286903E-05
        366     -1.6514739E-03
        367     -4.6257395E-04
        368     -1.3430311E-04
        369     -1.5307999E-03
        370      1.1294755E-03
        384     -4.1986399E-04
        385     -3.5790396E-04
        386     -6.8081221E-04
        387      5.0052602E-04
        388     -5.2799126E-04
        389     -2.1615855E-04
        390     -4.9586110E-04
        391     -1.4088701E-05
        392      3.1399912E-05
        393     -7.1094525E-04
        394      1.7102010E-04
        839      9.3362456E-04
        840      4.0710489E-05
        841      1.1191741E-04
        842      8.4050582E-04
        843      9.2349842E-04
        844     -3.3222021E-03
        845     -3.2440730E-03
        846     -2.9862861E-03
        847     -2.6449280E-03
        848     -3.4907161E-03
        849     -2.5404438E-04
        850     -6.4481621E-04
        851     -5.3302082E-04
        852     -4.1275681E-04
        853     -2.1738943E-04
        854      1.1834108E-04
        855      2.5996678E-04
        856      7.7275074E-05
        857      3.0517979E-05
        858      2.6042250E-04
        859      5.1404141E-05
        860      1.7949850E-04
        861      2.3003378E-04
        862      3.1329713E-04
        863      2.1198836E-04
        864      7.2860696E-05
        865     -1.0980540E-04
        866      5.7895657E-05
        867      2.3103946E-05
        868      8.2935517E-05
        869      4.5879971E-05
        870      7.3302293E-04
        871     -9.6679505E-05
        872     -1.6108976E-04
        873     -5.2283472E-04
        874      1.1577274E-03
        875     -7.3939836E-04
        876      9.5408351E-04
        877      4.7864887E-04
        878     -2.8823883E-04
        879     -4.4315521E-04
        880     -1.8157378E-03
        881     -1.0064462E-03
        882     -1.8478272E-03
        883     -2.1108032E-03
        884      2.3418426E-04
        885     -2.7379159E-04
        886     -7.8253555E-06
        887     -1.2892831E-03
        888     -2.9439047E-03
        889     -1.9472216E-03
        890     -1.6850935E-03
        891     -2.3725199E-03
        892     -2.5405702E-03
        893     -2.3149396E-03
        894     -3.0326834E-03
        895     -2.6426816E-03
        896     -3.4315177E-03
        897     -2.9709878E-03
        898     -2.6301721E-03
        899     -3.0765448E-03
        900     -2.2391462E-03
        901     -2.4036459E-03
        902     -1.6125267E-03
        903     -2.9838699E-03
        904     -7.6436342E-04
        905     -2.7414702E-03
        906     -1.0987402E-03
        907     -1.9743619E-03
        908     -2.0844432E-03
        909     -1.2673597E-03
        910     -2.2321049E-03
        911     -1.7020271E-03
        912     -1.5691555E-03
        913     -1.3869690E-03
        914     -4.4605359E-04
        915     -3.2415421E-04
        916     -5.9187394E-04
        917     -6.9986356E-04
        918     -3.9495714E-04
        919      2.6196163E-04
        920     -3.3890988E-05
        921      6.8420750E-05
        922     -4.1509006E-04
        923     -3.9425573E-04
        924     -4.8245210E-04
        925     -7.0192471E-08
        926      8.9107885E-05
        927      3.5338797E-04
        928      2.2406061E-04
        929      4.7733223E-04
        930      5.4096672E-04
        931      2.5091725E-04
        932      2.0662972E-04
        933      5.2732446E-04
        934     -2.3259168E-05
        935     -2.5735541E-04
        936     -3.2130686E-04
        937     -2.5730284E-04
        938      3.7664328E-04
        939     -9.2290639E-05
        940     -5.1002548E-04
        941      3.0102645E-04
        942     -9.6550663E-05
        943     -8.0326201E-04
        944     -4.4102478E-04
        945     -3.1093310E-04
        946     -7.7669360E-04
        947     -1.0007277E-04
        948      4.3881531E-04
        949      1.4586591E-03
        950     -2.1539962E-03
        951     -1.1419590E-03
        952     -1.8704402E-03
        953      4.7541223E-05
        954     -1.6744625E-03
        955      6.8375778E-05
        956     -1.0791555E-03
        957     -8.5858201E-04
        958     -2.9513846E-03
        959     -2.1603129E-03
        960     -2.4463443E-03
        961     -2.8774044E-03
        962     -2.7773799E-03
        963     -4.4089884E-03
        964     -3.6813199E-03
        965     -3.9644695E-03
        966     -3.3464720E-03
        967     -3.4121249E-03
        968     -1.3680473E-03
        969     -4.0807689E-03
        970     -3.3689595E-03
        971     -1.5564298E-03
        972     -2.7109878E-03
        973     -3.7565119E-03
        974      3.9367150E-04
        975     -1.2290686E-03
        976     -2.7955491E-03
        977      4.3267358E-05
        978     -2.2186254E-03
        979     -1.8040020E-03
        980      5.3662007E-04
        981     -1.3764435E-03
        982     -1.7034185E-03
        983      1.2802504E-03
        984      1.1264255E-04
        985      1.1925439E-05
        986      3.4209975E-04
        987      1.2336981E-04
        988     -1.6754392E-05
        989      6.6943361E-04
        990     -6.5408181E-04
        991     -8.5924750E-04
        992     -1.9152436E-04
        993     -8.0635908E-04
        994      5.2770042E-04
        995      2.0319895E-04
        996     -3.4646201E-04
        997     -4.6089340E-04
        998     -5.1052507E-04
        999     -5.9589432E-06
       1000      1.8604454E-04
       1001      7.5216567E-04
       1002      9.3985680E-04
       1003      9.2107537E-04
       1004     -1.5343759E-05
       1005      2.4207707E-04
       1006      4.7404223E-04
       1007     -1.4014849E-04
       1008     -4.4356833E-04
       1009      9.7689322E-05
       1010     -6.5058290E-04
       1011     -7.4642708E-04
       1012     -6.8870607E-05
       1013     -7.9792822E-05
       1014     -7.0520027E-04
       1015      3.3374758E-04
       1016     -3.5534797E-04
       1017     -5.0204985E-04
       1018     -3.8672168E-04
       1019     -1.0376703E-03
       1020     -2.8742152E-03
       1021     -7.3171164E-04
       1022     -5.3795543E-04
       1023      8.8410804E-04
       1024     -1.8714427E-03
       1025     -1.2656041E-03
       1026     -1.1884600E-03
       1027     -7.2536129E-04
       1028     -2.1951811E-03
       1029     -3.8502304E-03
       1030     -3.2174315E-03
       1031     -2.5667314E-03
       1032     -1.8318449E-03
       1033     -2.0870975E-03
       1034     -2.0168724E-03
       1035     -2.5440549E-03
       1036     -2.0619632E-03
       1037     -3.5455465E-03
       1038     -3.9748373E-03
       1039     -2.8174477E-03
       1040     -3.5905441E-03
       1041     -3.9248015E-03
       1042     -2.9061854E-03
       1043     -1.7370825E-03
       1044     -2.8772837E-03
       1045     -1.0559342E-03
       1046     -3.0846606E-03
       1047     -1.2493815E-03
       1048     -3.8804747E-03
       1049      1.2727939E-03
       1050     -1.2571675E-04
       1051      1.8764607E-03
       1052     -5.8377593E-04
       1053      7.6833989E-04
       1054     -4.0799950E-04
       1055     -2.4630017E-04
       1056     -1.7821492E-04
       1057      3.2708945E-05
       1058     -1.7702126E-04
       1059     -7.3126878E-04
       1060     -6.9988948E-04
       1061     -3.7858663E-04
       1062     -3.9642615E-04
       1063      1.1725115E-04
       1064     -6.5631223E-06
       1065      1.3074333E-04
       1066      6.8664034E-06
       1067      3.6407358E-04
       1068      5.5849608E-04
       1069      2.3558871E-05
       1070      3.9447245E-04
       1071      8.8556851E-04
       1072      3.6686636E-04
       1073      4.6787774E-05
       1074      5.9948933E-05
       1075     -1.7249313E-04
       1076     -6.8627489E-04
       1077     -2.4994202E-04
       1078      2.1323840E-04
       1079     -1.3471347E-04
       1080      4.6548965E-04
       1081      8.0907294E-04
       1082      1.4602727E-04
       1083     -8.4493409E-04
       1084      3.5635851E-04
       1085     -5.2594854E-05
       1086     -1.5761362E-03
       1087     -6.3597931E-04
       1088      8.5745724E-04
       1089     -1.1763543E-03
       1090     -7.5341983E-04
       1091     -1.0075460E-03
       1092     -4.2524483E-04
       1093     -8.0589294E-04
       1094     -1.6746515E-03
       1095     -7.3737851E-04
       1096     -1.4890479E-03
       1097     -1.2696929E-04
       1098      4.2260063E-04
       1099     -3.4121415E-03
       1100     -1.9820075E-03
       1101     -1.4762429E-03
       1102     -1.9176897E-03
       1103     -1.9303804E-03
       1104     -3.4052257E-03
       1105     -4.5018691E-03
       1106     -6.4918331E-03
       1107     -5.5048536E-03
       1108     -3.2231534E-03
       1109     -2.5187309E-03
       1110     -2.6625522E-03
       1111     -2.0004143E-03
       1112     -3.7708861E-03
       1113     -2.7497297E-03
       1114     -1.8184447E-03
       1115     -6.6830832E-04
       1116      3.2297263E-04
       1117      1.9974158E-03
       1118     -2.6344495E-03
       1119     -1.6241636E-03
       1120     -1.0735582E-03
       1121     -2.6496182E-03
       1122     -1.4500451E-03
       1123     -1.6540540E-03
       1124     -4.9123056E-04
       1125     -6.0271770E-05
       1126      1.1997047E-03
       1127      4.9661457E-05
       1128     -8.1313001E-04
       1129     -7.2140749E-04
       1130     -8.5390285E-04
       1131     -1.6718071E-03
       1132     -6.5388313E-04
       1133     -1.6835160E-05
       1134      5.1052104E-04
       1135      9.3532748E-04
       1136     -5.2832310E-04
       1137     -1.4071488E-04
       1138      1.6538847E-03
       1139     -1.6587651E-04
       1140     -5.4578775E-04
       1141      4.4364292E-04
       1142      3.8763275E-04
       1143     -4.2690006E-06
       1144      3.6894017E-04
       1145      2.3702749E-04
       1146      3.5116487E-04
       1147      3.8469275E-04
       1148     -3.8414784E-05
       1149     -2.9597770E-04
       1150     -3.6347841E-04
       1151     -3.4322966E-04
       1152     -4.6677802E-04
       1153     -3.7018703E-04
       1154     -5.2314253E-04
       1155      1.4530892E-04
       1156     -4.1694881E-04
       1157      3.2026208E-04
       1158      3.5274614E-04
       1159     -1.9460164E-03
       1160     -1.1332713E-03
       1161     -1.0420664E-03
       1162     -1.5955529E-03
       1163     -9.6214375E-04
       1164     -8.7477765E-04
       1165     -1.1538229E-03
       1166     -1.3832168E-03
       1167     -1.1426666E-03
       1168     -1.4678976E-03
       1169     -2.3477061E-03
       1170     -2.7396002E-03
       1171     -2.5479564E-03
       1172     -2.0547832E-03
       1173     -2.1636360E-03
       1174     -2.4034367E-03
       1175     -2.5270205E-03
       1176     -3.0216360E-03
       1177     -3.2814057E-03
       1178     -4.7135319E-03
       1179     -3.4775389E-03
       1180     -3.3694199E-03
       1181     -1.5842025E-03
       1182     -3.1150563E-03
       1183     -2.1517094E-03
       1184     -9.8531654E-05
       1185     -2.7423526E-03
       1186     -2.6784210E-03
       1187     -2.2311389E-04
       1188     -4.7306572E-04
       1189     -1.9133182E-03
       1190      1.7008101E-03
       1191     -4.9341157E-04
       1192     -1.9394106E-03
       1193     -3.7162429E-04
       1194     -2.7260585E-04
       1195     -1.1416817E-03
       1196     -7.6676873E-04
       1197      1.1933815E-04
       1198      1.4421298E-03
       1199     -8.2923885E-04
       1200      2.9312412E-04
       1201      3.2541089E-04
       1202      2.4332828E-04
       1203      1.0629703E-04
       1204      2.1624337E-04
       1205     -5.4690671E-04
       1206     -6.8560486E-05
       1207      7.0960269E-05
       1208     -1.6692964E-04
       1209      4.2599221E-04
       1210      9.2919916E-04
       1211      7.0781628E-04
       1212      3.7439291E-04
       1213      3.8757065E-04
       1214     -5.6443398E-05
       1215     -3.3086447E-04
       1216     -3.0480018E-04
       1217     -1.7202188E-04
       1218      3.1531841E-04
       1219      8.8526665E-05
       1220      9.9191465E-05
       1221      1.1099417E-04
       1222      5.1197647E-04
       1223     -2.6040184E-04
       1224     -8.5204162E-04
       1225     -9.0462241E-04
       1226     -7.1864781E-04
       1227     -1.4660246E-03
       1228     -5.1814901E-04
       1229     -2.6026251E-04
       1230     -1.6994352E-03
       1231     -5.1307550E-04
       1232     -7.5439359E-04
       1233     -1.6056804E-03
       1234     -2.0479288E-03
       1235     -6.2509464E-04
       1236     -1.0817598E-03
       1237     -1.6848818E-03
       1238     -1.7717088E-03
       1239     -1.3565851E-03
       1240     -2.4611236E-03
       1241     -2.1494084E-03
       1242     -1.7100622E-03
       1243     -7.4646907E-04
       1244     -1.3550295E-03
       1245     -2.3586807E-03
       1246     -2.7495335E-03
       1247     -2.6424729E-03
       1248     -3.1777022E-03
       1249     -4.7322599E-04
       1250     -2.1496293E-05
       1251      2.3667893E-04
       1252      9.6872985E-04
       1253     -2.9732734E-03
       1254     -1.5934632E-03
       1255     -1.7875999E-03
       1256     -1.8274026E-03
       1257     -1.9539253E-03
       1258      6.2332530E-04
       1259     -2.6732433E-03
       1260     -3.0966814E-03
       1261     -3.1226512E-03
       1262     -3.1219277E-03
       1263     -2.4218018E-03
       1264      1.7445217E-03
       1265      2.2613783E-03
       1266      2.3127688E-03
       1267      2.2148952E-03
       1268      1.9085118E-03
       1334      4.2735433E-04
       1335     -4.1984905E-04
       1336     -1.4125637E-03
       1337      9.2556377E-04
       1338      2.5189969E-04
       1339      1.5381003E-03
       1340      6.5359089E-05
       1341      5.8097275E-04
       1342      1.8941594E-03
       1343      3.3154372E-05
       1344     -1.4853849E-03
       1345     -1.1814480E-06
       1346     -8.9373270E-05
       1347      4.8460091E-05
       1348     -5.4822090E-04
       1349     -1.5699828E-03
       1350     -2.4331376E-04
       1351      8.1445635E-04
       1352     -1.4435290E-03
       1353     -2.4428990E-04
       1354      3.9774394E-04
       1355      8.3176948E-04
       1356     -8.8239276E-04
       1357     -9.6556826E-04
       1358     -6.9643948E-04
       1359      3.0579796E-04
       1360     -3.4917082E-04
       1361     -1.1739830E-03
       1362     -5.8834297E-04
       1363     -8.7902130E-04
       1364     -7.7817905E-04
       1365     -9.7673733E-04
       1366      4.2396715E-04
       1367     -1.9897652E-03
       1368     -1.2145862E-03
       1369      1.8436887E-03
       1370     -2.8060861E-04
       1371      1.5321802E-03
       1372     -3.8712782E-04
       1373      4.2973341E-04
       1374     -1.4071316E-03
       1375     -9.0400994E-04
       1376     -4.5652021E-04
       1377     -6.8147306E-04
       1378      7.2641506E-04
       1379     -5.4086920E-04
       1380      1.1675918E-03
       1381      3.3573548E-04
       1382     -1.2259096E-03
       1383     -7.9093612E-04
       1384     -2.3521351E-04
       1385      9.5557235E-04
       1386     -5.1527092E-04
       1387     -9.5639134E-05
       1388      1.0777226E-03

 MAXIMUM         2.3128E-03
 AT NODE              1266

 MINIMUM        -6.4918E-03
 AT NODE              1106


          THE ANALYSIS HAS BEEN COMPLETED



                              ANALYSIS COMPLETE
                              WITH      2 WARNING MESSAGES ON THE DAT FILE



     JOB TIME SUMMARY
       USER TIME (SEC)      =   5.5000    
       SYSTEM TIME (SEC)    =   1.4000    
       TOTAL CPU TIME (SEC) =   6.9000    
       WALLCLOCK TIME (SEC) =          3
