1

   Abaqus 2021                                  Date 20-Jul-2023   Time 14:13:02
   For use by UNIVERSITY OF MICHIGAN under license from Dassault Systemes or its subsidiary.



                         The Abaqus Software is a product of:

                           Dassault Systemes SIMULIA Corp.
                           1301 Atwood Avenue, Suite 101W
                              Johnston, RI 02919, USA
 


                   The Abaqus Software is available only under license
                   from Dassault Systemes or its subsidiary and may be
                   used or reproduced only in accordance with the terms
                   of such license.
 
                          On machine ME-ESTRADALAB04 
                          you are authorized to run
                          Abaqus/Standard until 31-Jul-2024

                          Your site id is: 200000000004058 


 
                    For assistance or any other information you may
                    obtain contact information for your local office
                    from the world wide web at:

                      http://www.3ds.com/products/simulia/locations/

 
                * * * * * * * * * * * * * * * * * * * * * * * * * * * * * * 
                *                                                         * 
                *                   *****************                     * 
                *                   *  N O T I C E  *                     * 
                *                   *****************                     * 
                *                                                         * 
                *                                                         * 
                *                       Abaqus 2021                       * 
                *                                                         * 
                *          BUILD ID: 2020_03_06-09.50.37 167380           * 
                *                                                         * 
                *                                                         * 
                *  Please make sure you are using                         * 
                *  release Abaqus 2021 manuals                            * 
                *  plus the notes accompanying this release.              * 
                *                                                         * 
                *                                                         * 
                *                                                         * 
                *                                                         * 
                *                                                         * 
                *   This program may not be used for commercial purposes  * 
                *           without payment of a commercial fee.          * 
                *                                                         * 
                * * * * * * * * * * * * * * * * * * * * * * * * * * * * * * 


 



     PROCESSING PART, INSTANCE, AND ASSEMBLY INFORMATION
   *******************************************************


     END PROCESSING PART, INSTANCE, AND ASSEMBLY INFORMATION
   ***********************************************************




     OPTIONS BEING PROCESSED
   ***************************


  *Heading
  *Node
  *Element, type=C3D4H
  *Nset, nset=ASSEMBLY_PART-1-1_SET-1
  *Elset, elset=ASSEMBLY_PART-1-1_SET-1
  *Nset, nset=ASSEMBLY_BC-SET-1
  *Nset, nset=ASSEMBLY_BC-SET-2
  *Elset, elset=ASSEMBLY_BC-SET-1
  *Elset, elset=ASSEMBLY_BC-SET-2
  *material, name=MATERIAL-1
  *hyperelastic, neohooke
  *solidsection, elset=ASSEMBLY_PART-1-1_SET-1, controls=EC-1, material=MATERIAL-1
  *sectioncontrols, name=EC-1, hourglass=ENHANCED

 ***WARNING: THE PARAMETER HOURGLASS = ENHANCED ON THE SECTION CONTROLS OPTION 
             IS RELEVANT FOR THESE ELEMENTS: C3D8R, CAX4R, CGAX4R, CPEG4R, 
             CPE4R, CPS4R, M3D4R, S4R, SC8R AND THEIR HYBRID, THERMAL AND 
             PRESSURE COUNTERPARTS WHEREVER APPLICABLE. IT IS ALSO RELEVANT FOR 
             ALL TYPES OF MODIFIED TRIANGULAR AND TETRAHEDRAL ELEMENTS. THIS 
             WARNING CAN BE IGNORED IF THE FEATURE IS APPLIED TO THESE ELEMENT 
             TYPES ONLY.
  *solidsection, elset=ASSEMBLY_PART-1-1_SET-1, controls=EC-1, material=MATERIAL-1
  *boundary
  *boundary
  *boundary
  *boundary
  *output, field, variable=PRESELECT
  *output, history, variable=PRESELECT
  *output, field, variable=PRESELECT
  *output, history, variable=PRESELECT
  *output, field, variable=PRESELECT
  *output, history, variable=PRESELECT

 ***NOTE: C3D10HS AND HYBRID TETRAHEDRAL ELEMENTS WILL ENFORCE VOLUMETRIC 
          CONTINUITY ACROSS MATERIAL BOUNDARIES. IN ORDER TO ALLOW 
          DISCONTINUITIES IN THE VOLUMETRIC FIELD USE *TIE.
  *Step, name=Step-1, nlgeom=YES
  *output, field, variable=PRESELECT
  *output, history, variable=PRESELECT
  *Step, name=Step-1, nlgeom=YES
  *Step, name=Step-1, nlgeom=YES
  *static
  *boundary
  *boundary
  *output, field, variable=PRESELECT
  *output, history, variable=PRESELECT
  *nodeprint
  *elprint, position=CENTROIDAL

 ***WARNING: OUTPUT REQUEST DG IS ONLY AVAILABLE FOR *HYPERELASTIC/FOAM AND 
             *USER MATERIAL.
  *nodeprint, nset=ASSEMBLY_BC-SET-1
  *nodeprint, nset=ASSEMBLY_BC-SET-2
  *endstep
  *Step, name=Step-1, nlgeom=YES
  *static
  *boundary
  *boundary
  *endstep

 ***NOTE: Boundary conditions are specified on inactive dof of 679 nodes. The 
          nodes have been identified in node set WarnNodeBCInactiveDof.


                              E L E M E N T,   N O D E,   A N D   S U R F A C E   M A P S


**NOTE: This section may not include complete information about
        members of sets and surfaces. Use *PREPRINT, MODEL=YES 
        in order to get the set and surface members printed    
        under the following sections:                          
            - E L E M E N T   S E T S                          
            - N O D E   S E T S                                
            - S U R F A C E   D E F I N I T I O N S .          


Assembly name: ASSEMBLY
Number of instances: 1

ASSEMBLY LEVEL
  node sets:
    BC-SET-1:
      instance name: PART-1-1
      number of nodes: 679
      nodes: 
        1 2 3 4 5 6 7 8 9 10 11 12 13 14 15 16 17 18 19 20 21 22 23 24
        25 26 27 28 29 30 31 32 33 34 35 36 37 38 39 40 41 42 43 44 45
        46 47 48 49 50 51 52 53 54 55 56 57 58 59 60 61 62 63 64 65 66
        67 68 69 70 71 72 73 74 75 76 77 78 79 80 81 82 83 84 85 86 87
        88 89 90 91 92 93 94 189 190 191 199 200 201 202 203 204 205 206
        207 208 209 210 211 212 213 214 215 216 217 218 219 220 221 222
        223 224 225 226 227 228 229 230 231 232 233 234 235 236 237 238
        239 240 241 242 243 244 245 246 247 248 249 250 251 252 253 254
        255 256 257 258 259 260 261 262 263 264 265 266 267 268 269 270
        271 272 273 274 275 276 277 278 279 280 281 282 283 284 285 286
        287 288 289 290 291 292 387 388 389 409 410 411 412 413 414 415
        416 417 418 419 420 421 422 423 424 425 426 427 428 429 430 431
        432 433 434 435 436 437 438 439 440 441 442 443 444 445 446 447
        448 449 450 451 452 453 454 455 456 457 458 459 460 461 462 463
        464 465 466 467 468 469 470 471 472 473 474 475 476 477 478 479
        480 481 482 483 484 485 486 487 488 489 490 491 492 493 494 495
        496 497 498 499 500 501 502 503 504 505 506 507 508 509 510 511
        512 513 514 515 516 517 518 519 520 521 522 523 524 525 526 527
        528 529 530 531 532 533 534 535 536 537 538 539 540 541 542 543
        544 545 546 547 548 549 550 551 552 553 554 555 556 557 558 559
        560 561 562 563 564 565 566 567 568 569 570 571 572 573 574 575
        576 577 578 579 580 581 582 583 584 585 586 587 588 589 590 591
        592 593 594 595 596 597 598 599 600 601 602 603 604 605 606 607
        608 609 610 611 612 613 614 615 616 617 618 619 620 621 622 623
        624 625 626 627 628 629 630 631 632 633 634 635 636 637 638 639
        640 641 642 643 644 645 646 647 648 649 650 651 652 653 654 655
        656 657 658 659 660 661 662 663 664 665 666 667 668 669 670 671
        672 673 674 675 676 677 678 679 680 681 682 683 684 685 686 687
        688 689 690 691 692 693 694 695 696 697 698 699 700 701 702 703
        704 705 706 707 708 709 710 711 712 713 714 715 716 717 718 719
        720 721 722 723 724 725 726 727 728 729 730 731 732 733 734 735
        736 737 738 739 740 741 742 743 744 745 746 747 748 749 750 751
        752 753 754 755 756 757 758 759 760 761 762 763 764 765 766 767
        768 769 770 771 772 773 774 775 776 777 778 779 780 781 782 783
        784 785 786 787 788 789 790 791 792 793 794 795 796 797 798 799
        800 801 802 803 804 805 806 807 808 809 810 811 812 813 814 815
        816 817 818 819 820 821 822 823 824 825 826 827 828 829 830 831
        832 833 834 835 836 837 838 839 840 841 842 843 844 845 846 847
        848 849 850 851 852 853 854 855 856 857 858 859 860 861 862 863
        864 865 866 867 868 869 870 871 872 873 874 875 876 877 878 1349
        1350 1351 1352 1353 1354 1355 1356 1357 1358 1359 1360 1361 1362
        1363

    BC-SET-2:
      instance name: PART-1-1
      number of nodes: 679
      nodes: 
        95 96 97 98 99 100 101 102 103 104 105 106 107 108 109 110 111
        112 113 114 115 116 117 118 119 120 121 122 123 124 125 126 127
        128 129 130 131 132 133 134 135 136 137 138 139 140 141 142 143
        144 145 146 147 148 149 150 151 152 153 154 155 156 157 158 159
        160 161 162 163 164 165 166 167 168 169 170 171 172 173 174 175
        176 177 178 179 180 181 182 183 184 185 186 187 188 194 195 196
        293 294 295 296 297 298 299 300 301 302 303 304 305 306 307 308
        309 310 311 312 313 314 315 316 317 318 319 320 321 322 323 324
        325 326 327 328 329 330 331 332 333 334 335 336 337 338 339 340
        341 342 343 344 345 346 347 348 349 350 351 352 353 354 355 356
        357 358 359 360 361 362 363 364 365 366 367 368 369 370 371 372
        373 374 375 376 377 378 379 380 381 382 383 384 385 386 392 393
        394 879 880 881 882 883 884 885 886 887 888 889 890 891 892 893
        894 895 896 897 898 899 900 901 902 903 904 905 906 907 908 909
        910 911 912 913 914 915 916 917 918 919 920 921 922 923 924 925
        926 927 928 929 930 931 932 933 934 935 936 937 938 939 940 941
        942 943 944 945 946 947 948 949 950 951 952 953 954 955 956 957
        958 959 960 961 962 963 964 965 966 967 968 969 970 971 972 973
        974 975 976 977 978 979 980 981 982 983 984 985 986 987 988 989
        990 991 992 993 994 995 996 997 998 999 1000 1001 1002 1003 1004
        1005 1006 1007 1008 1009 1010 1011 1012 1013 1014 1015 1016 1017
        1018 1019 1020 1021 1022 1023 1024 1025 1026 1027 1028 1029 1030
        1031 1032 1033 1034 1035 1036 1037 1038 1039 1040 1041 1042 1043
        1044 1045 1046 1047 1048 1049 1050 1051 1052 1053 1054 1055 1056
        1057 1058 1059 1060 1061 1062 1063 1064 1065 1066 1067 1068 1069
        1070 1071 1072 1073 1074 1075 1076 1077 1078 1079 1080 1081 1082
        1083 1084 1085 1086 1087 1088 1089 1090 1091 1092 1093 1094 1095
        1096 1097 1098 1099 1100 1101 1102 1103 1104 1105 1106 1107 1108
        1109 1110 1111 1112 1113 1114 1115 1116 1117 1118 1119 1120 1121
        1122 1123 1124 1125 1126 1127 1128 1129 1130 1131 1132 1133 1134
        1135 1136 1137 1138 1139 1140 1141 1142 1143 1144 1145 1146 1147
        1148 1149 1150 1151 1152 1153 1154 1155 1156 1157 1158 1159 1160
        1161 1162 1163 1164 1165 1166 1167 1168 1169 1170 1171 1172 1173
        1174 1175 1176 1177 1178 1179 1180 1181 1182 1183 1184 1185 1186
        1187 1188 1189 1190 1191 1192 1193 1194 1195 1196 1197 1198 1199
        1200 1201 1202 1203 1204 1205 1206 1207 1208 1209 1210 1211 1212
        1213 1214 1215 1216 1217 1218 1219 1220 1221 1222 1223 1224 1225
        1226 1227 1228 1229 1230 1231 1232 1233 1234 1235 1236 1237 1238
        1239 1240 1241 1242 1243 1244 1245 1246 1247 1248 1249 1250 1251
        1252 1253 1254 1255 1256 1257 1258 1259 1260 1261 1262 1263 1264
        1265 1266 1267 1268 1269 1270 1271 1272 1273 1274 1275 1276 1277
        1278 1279 1280 1281 1282 1283 1284 1285 1286 1287 1288 1289 1290
        1291 1292 1293 1294 1295 1296 1297 1298 1299 1300 1301 1302 1303
        1304 1305 1306 1307 1308 1309 1310 1311 1312 1313 1314 1315 1316
        1317 1318 1319 1320 1321 1322 1323 1324 1325 1326 1327 1328 1329
        1330 1331 1332 1333 1334 1335 1336 1337 1338 1339 1340 1341 1342
        1343 1344 1345 1346 1347 1348 1374 1375 1376 1377 1378 1379 1380
        1381 1382 1383 1384 1385 1386 1387 1388

  element sets:
    BC-SET-1:
      instance name: PART-1-1
      number of elements: 2432
      elements: 
        30 72 73 75 79 86 88 89 91 92 93 95 96 98 99 102 106 108 109 110
        111 112 113 114 115 116 117 120 122 135 136 138 140 141 152 153
        158 167 170 171 178 184 189 191 194 202 204 205 210 214 216 220
        222 223 226 227 235 246 252 254 259 260 268 271 273 274 275 276
        277 278 279 280 281 283 284 285 287 291 292 294 299 304 306 308
        309 314 316 330 340 342 343 346 347 348 349 351 352 358 362 364
        365 368 369 380 383 384 387 388 389 390 400 401 402 403 404 408
        409 414 418 419 427 429 432 434 438 439 442 444 445 446 459 462
        471 474 479 480 482 485 486 488 492 495 496 497 499 514 524 526
        528 529 530 531 532 533 534 535 536 537 543 545 547 549 550 551
        553 554 566 573 575 577 578 579 583 588 589 590 591 592 593 594
        595 596 597 599 600 601 602 603 604 605 607 608 609 611 613 614
        615 619 621 622 626 627 628 635 636 637 638 639 642 643 644 646
        647 649 651 652 655 656 657 658 660 661 662 664 665 671 672 674
        675 677 679 680 681 682 683 684 685 686 687 689 691 693 696 703
        705 712 715 716 717 723 724 736 742 745 746 747 748 749 750 751
        752 753 754 755 757 759 761 765 768 771 772 774 775 776 777 781
        782 783 785 786 787 790 799 805 813 816 817 820 821 822 823 824
        829 832 833 834 835 837 839 840 844 853 876 890 894 896 897 898
        899 900 902 904 907 910 912 914 917 918 919 921 923 926 930 933
        935 938 939 941 948 950 958 960 961 962 967 971 974 983 985 986
        988 989 991 992 993 995 996 1002 1005 1006 1007 1009 1010 1015
        1016 1019 1024 1025 1026 1028 1032 1034 1036 1038 1042 1045 1048
        1051 1053 1055 1056 1057 1059 1065 1069 1072 1076 1078 1080 1084
        1092 1095 1097 1098 1099 1100 1102 1104 1105 1106 1109 1112 1114
        1117 1126 1130 1131 1133 1135 1137 1146 1147 1149 1153 1165 1171
        1176 1182 1186 1188 1194 1197 1198 1199 1202 1203 1205 1211 1213
        1214 1216 1217 1219 1221 1225 1226 1228 1237 1238 1241 1242 1247
        1248 1249 1250 1255 1257 1265 1267 1269 1273 1276 1287 1291 1293
        1294 1296 1297 1298 1303 1310 1315 1319 1320 1326 1327 1329 1334
        1337 1340 1341 1343 1344 1345 1346 1348 1349 1350 1352 1360 1363
        1374 1375 1376 1377 1379 1382 1383 1384 1388 1390 1392 1407 1409
        1412 1415 1416 1421 1426 1427 1428 1429 1433 1440 1441 1442 1448
        1452 1454 1460 1465 1466 1473 1481 1482 1488 1489 1493 1505 1506
        1510 1511 1516 1517 1518 1525 1533 1535 1539 1543 1548 1554 1561
        1563 1569 1577 1578 1580 1584 1586 1589 1591 1593 1595 1596 1599
        1600 1611 1612 1616 1619 1620 1623 1625 1630 1631 1636 1637 1639
        1640 1641 1643 1648 1655 1669 1676 1677 1683 1685 1688 1689 1690
        1692 1697 1699 1702 1705 1709 1718 1723 1733 1735 1738 1740 1741
        1742 1743 1744 1747 1748 1751 1753 1754 1755 1758 1759 1768 1773
        1774 1776 1779 1780 1782 1784 1786 1788 1801 1802 1803 1808 1811
        1816 1818 1821 1824 1826 1827 1830 1832 1833 1834 1836 1837 1838
        1840 1842 1843 1844 1845 1848 1853 1856 1872 1873 1875 1876 1877
        1879 1881 1884 1885 1886 1890 1891 1900 1907 1908 1919 1920 1926
        1929 1936 1938 1941 1942 1943 1944 1945 1946 1947 1955 1958 1959
        1964 1965 1966 1975 1976 1977 1978 1979 1980 1981 1985 1987 1988
        1990 1998 2005 2006 2007 2010 2011 2013 2016 2021 2022 2025 2026
        2027 2029 2032 2034 2044 2049 2050 2051 2052 2054 2056 2057 2058
        2061 2062 2074 2081 2089 2094 2100 2101 2107 2108 2127 2130 2131
        2132 2134 2135 2137 2138 2139 2140 2144 2149 2154 2162 2164 2165
        2166 2167 2169 2170 2172 2173 2176 2177 2179 2186 2189 2191 2200
        2204 2208 2209 2222 2227 2229 2231 2234 2235 2237 2240 2246 2249
        2251 2252 2259 2265 2269 2271 2278 2281 2282 2283 2284 2285 2290
        2295 2296 2304 2309 2312 2313 2315 2328 2329 2331 2334 2338 2339
        2345 2347 2348 2349 2350 2353 2354 2355 2356 2357 2363 2364 2368
        2370 2371 2374 2377 2383 2387 2392 2394 2395 2396 2401 2402 2405
        2408 2409 2410 2411 2415 2421 2422 2423 2426 2428 2439 2440 2446
        2450 2451 2454 2466 2473 2474 2475 2476 2477 2478 2480 2481 2483
        2484 2487 2489 2491 2496 2502 2508 2512 2518 2522 2525 2528 2537
        2539 2542 2544 2546 2558 2559 2560 2561 2571 2575 2581 2582 2584
        2586 2589 2590 2593 2611 2612 2613 2614 2615 2617 2620 2622 2623
        2625 2633 2634 2635 2637 2638 2644 2647 2648 2650 2657 2658 2659
        2660 2663 2667 2673 2676 2677 2678 2692 2700 2703 2704 2710 2716
        2719 2720 2721 2722 2723 2725 2733 2741 2744 2746 2748 2750 2751
        2752 2754 2759 2764 2768 2769 2771 2781 2791 2808 2809 2810 2818
        2819 2828 2829 2834 2836 2840 2842 2846 2864 2865 2869 2877 2886
        2896 2897 2898 2900 2901 2902 2904 2906 2910 2911 2914 2916 2918
        2922 2924 2925 2926 2927 2928 2932 2937 2940 2945 2948 2958 2968
        2972 2973 2977 2979 2983 2984 2985 2987 2988 2997 3003 3004 3006
        3008 3009 3010 3019 3047 3051 3058 3059 3062 3065 3070 3071 3072
        3074 3075 3076 3079 3081 3088 3089 3090 3092 3093 3094 3097 3099
        3101 3102 3103 3104 3115 3116 3121 3125 3146 3151 3152 3153 3160
        3161 3169 3172 3177 3196 3202 3204 3207 3211 3228 3231 3239 3240
        3243 3244 3255 3257 3258 3259 3262 3265 3267 3268 3269 3270 3271
        3272 3274 3275 3276 3277 3280 3282 3285 3297 3299 3300 3301 3307
        3312 3313 3315 3320 3323 3325 3326 3327 3329 3331 3354 3360 3368
        3377 3380 3381 3384 3389 3391 3394 3405 3406 3410 3412 3414 3416
        3423 3440 3443 3445 3446 3454 3457 3459 3463 3471 3472 3473 3475
        3476 3478 3483 3486 3487 3489 3492 3498 3502 3504 3505 3507 3515
        3516 3519 3522 3524 3534 3535 3541 3542 3544 3548 3556 3557 3560
        3565 3566 3572 3577 3578 3597 3601 3602 3610 3620 3626 3633 3636
        3637 3638 3640 3643 3647 3648 3661 3667 3668 3670 3671 3672 3673
        3674 3680 3681 3686 3687 3688 3700 3710 3714 3715 3718 3722 3723
        3729 3730 3731 3732 3736 3737 3738 3743 3744 3755 3756 3767 3775
        3777 3779 3798 3799 3803 3807 3810 3817 3821 3833 3844 3845 3861
        3862 3864 3868 3874 3876 3877 3878 3880 3881 3884 3886 3887 3890
        3892 3897 3898 3902 3903 3906 3908 3910 3913 3914 3915 3918 3920
        3922 3925 3926 3930 3933 3936 3943 3951 3961 3969 3970 3980 3987
        3988 3990 3991 3999 4001 4004 4006 4017 4020 4022 4023 4024 4027
        4028 4035 4037 4040 4044 4047 4048 4051 4052 4053 4056 4075 4078
        4079 4080 4084 4090 4099 4100 4101 4102 4107 4108 4109 4110 4113
        4116 4119 4120 4121 4122 4131 4132 4135 4136 4137 4140 4141 4146
        4148 4150 4151 4158 4165 4177 4180 4185 4188 4189 4192 4209 4210
        4214 4215 4221 4229 4230 4231 4242 4250 4251 4259 4263 4268 4274
        4284 4297 4303 4304 4308 4313 4316 4318 4319 4320 4331 4339 4351
        4372 4377 4383 4384 4387 4389 4392 4405 4413 4417 4420 4424 4435
        4436 4437 4438 4439 4442 4447 4448 4451 4454 4456 4462 4463 4465
        4466 4470 4473 4475 4476 4477 4478 4480 4483 4484 4485 4488 4495
        4499 4500 4502 4503 4504 4505 4508 4516 4517 4521 4529 4531 4534
        4536 4538 4543 4544 4547 4548 4549 4555 4556 4561 4566 4568 4569
        4575 4578 4581 4583 4586 4587 4588 4592 4597 4612 4614 4617 4625
        4629 4631 4633 4634 4637 4644 4662 4686 4704 4732 4744 4745 4749
        4750 4751 4752 4753 4754 4757 4758 4759 4760 4774 4776 4777 4778
        4779 4793 4794 4796 4797 4800 4806 4815 4816 4817 4818 4820 4821
        4826 4828 4829 4832 4833 4834 4837 4863 4869 4875 4877 4879 4883
        4884 4885 4889 4891 4897 4903 4904 4906 4913 4917 4918 4925 4931
        4932 4935 4937 4940 4941 4948 4950 4951 4969 4972 4987 4992 5002
        5003 5004 5005 5006 5014 5017 5019 5025 5028 5030 5032 5034 5035
        5036 5037 5041 5048 5051 5052 5053 5058 5065 5066 5076 5081 5087
        5094 5102 5103 5112 5113 5116 5119 5120 5126 5132 5133 5134 5135
        5136 5137 5141 5147 5154 5155 5156 5160 5163 5164 5167 5168 5179
        5180 5181 5182 5183 5184 5187 5189 5191 5199 5208 5209 5210 5211
        5212 5213 5230 5232 5234 5235 5237 5239 5245 5246 5253 5254 5258
        5268 5269 5279 5280 5281 5289 5300 5301 5302 5304 5305 5306 5328
        5338 5344 5354 5355 5356 5357 5365 5366 5370 5373 5374 5383 5386
        5391 5397 5399 5400 5401 5402 5404 5405 5406 5407 5408 5415 5418
        5437 5446 5458 5460 5466 5473 5476 5483 5485 5486 5487 5489 5495
        5503 5505 5507 5508 5515 5517 5519 5521 5522 5523 5526 5541 5545
        5550 5560 5561 5563 5564 5569 5570 5572 5573 5574 5579 5586 5593
        5602 5603 5604 5605 5607 5611 5619 5621 5624 5628 5630 5637 5639
        5640 5642 5653 5654 5655 5656 5658 5663 5665 5670 5673 5676 5682
        5690 5692 5694 5704 5705 5710 5717 5719 5720 5725 5727 5728 5729
        5730 5735 5742 5755 5757 5759 5760 5762 5763 5777 5778 5780 5781
        5795 5804 5821 5822 5823 5827 5832 5841 5857 5863 5865 5869 5872
        5877 5879 5881 5895 5898 5904 5922 5925 5927 5931 5933 5934 5941
        5942 5947 5948 5949 5951 5953 5959 5960 5961 5968 5971 5973 5976
        5983 5984 5985 5986 5994 5995 5996 5998 6000 6003 6004 6005 6007
        6008 6009 6010 6012 6017 6039 6051 6061 6066 6069 6073 6079 6081
        6083 6088 6100 6101 6102 6104 6109 6115 6116 6122 6123 6124 6125
        6126 6130 6131 6132 6133 6134 6137 6138 6139 6142 6148 6153 6161
        6182 6184 6186 6187 6188 6190 6191 6197 6203 6207 6208 6209 6210
        6212 6216 6241 6242 6245 6246 6247 6250 6251 6254 6258 6274 6279
        6284 6286 6287 6289 6313 6316 6317 6323 6331 6336 6339 6353 6358
        6366 6367 6368 6384 6386 6387 6388 6389 6393 6394 6396 6399 6422
        6424 6427 6429 6430 6431 6433 6434 6444 6447 6460 6462 6464 6467
        6468 6470 6481 6482 6493 6497 6498 6499 6500 6533 6559 6567 6579
        6582 6583 6585 6593 6596 6600 6614 6615 6633 6635 6641 6642 6644
        6650 6675 6683 6684 6685 6686 6687 6690 6695 6697 6708 6709 6715
        6728 6729 6732 6733 6735 6738 6748 6757 6765 6766 6767 6769 6770
        6781 6783 6787 6789 6808 6809 6810 6815 6817 6825 6829 6843 6845
        6848 6849 6851 6855 6864 6865 6866 6868 6876 6882 6888 6890 6899
        6904 6905 6907 6908 6927 6932 6934 6943 6944 6946 6947 6948 6963
        6964 6966 6969 6972 6977 6980 6984 7007 7008 7009 7013 7014 7015
        7017 7018 7019 7020 7022 7034 7046 7049 7054 7061 7064 7075 7086
        7094 7098 7102 7103 7104 7106 7113 7114 7115 7116 7117 7126 7131
        7132 7139 7149 7153 7154 7155 7178 7183 7184 7191 7192 7239 7243
        7249 7253 7254 7260 7274 7288 7296 7309 7311 7313 7315 7316 7320
        7321 7324 7327 7328 7329 7330 7348 7350 7352 7357 7364 7370 7376
        7378 7391 7394 7398 7402 7411 7415 7416 7425 7429 7432 7435 7462
        7463 7468 7469 7472 7480 7481 7482 7485 7492 7494 7495 7497 7499
        7502 7519 7525 7532 7533 7543 7549 7555 7556 7565 7566 7572 7591
        7596 7601 7602 7606 7610 7612 7623 7625 7627 7629 7631 7632 7634
        7638 7639 7641 7642 7648 7650 7656 7659 7660 7667 7668 7693 7694
        7695 7696 7697 7702 7703 7704 7705 7708 7709 7710 7714 7732 7734
        7738 7748 7749 7751 7752 7757 7758 7760 7761 7762 7763 7773 7794
        7795 7798 7802 7803 7818 7824 7826 7827 7830 7832 7833 7848 7849
        7862 7868 7896 7897 7898 7899 7925 7995 7998 8005 8014 8038 8059
        8060 8061 8064 8065 8066 8077 8079 8080 8082 8084 8085 8088 8090
        8095 8098 8099 8105 8115 8116 8117 8118 8142 8143 8144 8161 8169
        8177 8179 8184 8188 8189 8193 8194 8196 8216 8223 8228 8237 8238
        8242 8243 8244 8245 8246 8259 8269 8270 8274 8275 8276 8278 8279
        8297 8300 8301 8310 8313 8314 8315 8320 8321 8322 8325 8327 8341
        8351 8353 8359 8364 8374 8384 8385 8395 8398 8399 8403 8404 8405
        8407 8408 8415 8421 8427 8431 8434 8450 8451 8455 8456 8471 8486
        8498 8514 8518 8519 8520 8535 8538 8539 8543 8544 8545 8554 8569
        8578 8588 8591 8593 8594 8595 8601 8613 8624 8640 8642 8659 8669
        8670 8676 8680 8703 8705 8706 8707 8710 8711 8733 8734 8735 8736
        8760 8765 8767 8785 8797 8799 8801 8803 8806 8809 8815 8816 8817
        8826 8827 8860 8861 8862 8863 8864 8865 8866 8867 8868 8889 8892
        8894 8898 8899 8901 8904 8905 8948 8949 8950 8951 8956 8961 8962
        8972 8973 8978 8982 8983 8984 8987 9004 9005 9016 9019 9040 9041
        9042 9043 9049 9056 9057 9065 9068 9070 9094 9095 9105 9108 9123
        9125 9127 9131 9132 9133 9140 9153 9159 9163 9167 9169 9172 9180
        9182 9207 9212 9220 9221 9230 9244 9267 9268 9278 9298 9307 9308
        9312 9313 9317 9324 9336 9343 9358 9359 9360 9363 9369 9374 9388
        9389 9392 9393 9396 9397 9399 9404 9405 9406 9409 9418 9421 9422
        9423 9428 9432 9436 9439 9444 9445 9447 9455 9457 9469 9481 9482
        9483 9485 9486 9487 9495 9500 9506 9507 9508 9511 9513 9534 9535
        9542 9588 9589 9596 9599 9601 9602 9603 9617 9618 9621 9625 9629
        9642 9643 9646 9658 9663 9670 9678 9685 9687 9691 9714 9732 9733
        9734 9735 9741 9758 9770 9771 9781 9799 9820 9821 9828 9830 9831
        9832 9833 9834 9837 9884 9906 9936 9943 9953 9956 9989

    BC-SET-2:
      instance name: PART-1-1
      number of elements: 2446
      elements: 
        41 47 54 58 66 67 68 70 77 78 80 81 82 83 85 87 90 94 101 124
        126 127 139 142 143 144 145 146 147 148 150 154 156 161 163 164
        165 166 172 176 177 181 186 187 188 192 196 200 201 206 208 209
        212 221 236 238 239 241 243 244 245 247 249 250 251 253 255 256
        257 261 262 264 269 272 282 289 295 302 303 307 312 315 317 318
        322 324 325 327 335 345 350 353 355 357 359 363 372 375 376 379
        381 382 385 386 391 395 396 397 398 399 405 407 417 420 421 422
        423 430 431 435 436 443 447 451 452 453 454 455 456 460 463 464
        465 466 467 468 473 475 476 478 484 490 494 498 500 501 503 505
        507 508 511 516 518 522 525 527 538 539 540 542 546 552 556 558
        562 563 564 565 567 571 574 576 584 585 598 606 610 612 617 618
        634 641 645 648 650 653 659 663 666 667 669 673 676 688 692 694
        697 698 699 700 702 706 707 708 726 728 730 733 734 735 738 739
        741 744 756 763 766 767 769 784 788 789 791 792 794 796 800 803
        807 809 811 812 819 825 827 828 830 831 836 842 847 849 854 856
        858 861 862 864 866 867 868 871 872 873 874 875 877 878 883 884
        885 886 891 892 893 901 913 915 931 934 944 945 947 952 955 956
        968 970 973 975 977 979 980 984 987 998 1001 1008 1011 1012 1014
        1017 1029 1037 1039 1040 1043 1044 1054 1060 1061 1062 1063 1064
        1071 1073 1074 1075 1077 1081 1082 1083 1089 1094 1101 1116 1124
        1129 1134 1136 1143 1144 1150 1156 1158 1161 1166 1167 1170 1175
        1183 1184 1187 1192 1209 1210 1212 1215 1220 1222 1223 1227 1230
        1231 1233 1235 1240 1244 1251 1253 1260 1266 1270 1277 1280 1281
        1283 1285 1286 1289 1295 1307 1308 1309 1312 1313 1314 1316 1317
        1321 1328 1338 1353 1354 1361 1362 1365 1366 1389 1391 1395 1396
        1397 1398 1401 1402 1404 1405 1406 1410 1411 1417 1418 1419 1422
        1424 1430 1434 1435 1438 1446 1451 1453 1458 1470 1474 1479 1484
        1492 1498 1502 1503 1504 1508 1520 1524 1530 1531 1532 1534 1538
        1540 1541 1542 1544 1545 1546 1547 1549 1551 1556 1558 1568 1570
        1571 1572 1575 1576 1579 1581 1583 1598 1602 1604 1605 1608 1613
        1614 1621 1622 1627 1632 1633 1634 1638 1644 1645 1649 1652 1656
        1657 1660 1661 1663 1664 1666 1667 1686 1691 1693 1695 1696 1698
        1700 1710 1714 1715 1716 1717 1719 1720 1721 1724 1725 1729 1730
        1731 1732 1739 1746 1749 1750 1752 1756 1757 1761 1764 1766 1769
        1772 1777 1781 1794 1795 1797 1798 1804 1805 1806 1815 1819 1820
        1822 1823 1825 1829 1835 1841 1850 1852 1854 1855 1857 1858 1862
        1865 1867 1870 1871 1883 1887 1893 1894 1895 1896 1897 1898 1899
        1901 1903 1904 1905 1906 1909 1910 1911 1914 1915 1916 1917 1921
        1923 1924 1928 1932 1933 1934 1935 1939 1940 1948 1949 1950 1957
        1962 1963 1967 1968 1970 1982 1992 1993 1994 1995 1996 1999 2000
        2002 2003 2004 2008 2009 2015 2030 2036 2042 2043 2047 2055 2059
        2066 2067 2068 2071 2073 2075 2076 2077 2078 2082 2084 2086 2087
        2088 2090 2096 2097 2098 2103 2116 2119 2120 2122 2123 2141 2146
        2159 2174 2180 2194 2196 2197 2207 2210 2211 2212 2214 2215 2219
        2223 2233 2245 2248 2255 2258 2262 2266 2267 2268 2270 2275 2279
        2280 2291 2293 2301 2305 2306 2308 2310 2311 2314 2316 2318 2322
        2323 2324 2332 2340 2341 2352 2361 2365 2366 2376 2378 2381 2386
        2390 2398 2404 2412 2413 2414 2418 2419 2420 2429 2430 2431 2432
        2433 2434 2435 2436 2441 2442 2443 2456 2457 2458 2460 2464 2471
        2479 2485 2493 2494 2495 2498 2499 2500 2510 2514 2515 2519 2520
        2521 2523 2526 2527 2529 2530 2531 2532 2535 2549 2552 2553 2565
        2567 2568 2570 2572 2574 2576 2578 2579 2580 2583 2585 2596 2598
        2601 2603 2604 2605 2606 2607 2608 2609 2618 2628 2632 2639 2640
        2641 2642 2649 2653 2654 2655 2664 2665 2666 2669 2671 2674 2675
        2680 2681 2683 2684 2685 2691 2696 2697 2702 2705 2708 2709 2712
        2714 2715 2718 2727 2729 2731 2732 2735 2736 2737 2738 2739 2740
        2743 2745 2747 2749 2755 2760 2765 2772 2774 2775 2777 2784 2785
        2787 2794 2795 2797 2801 2807 2812 2813 2816 2820 2823 2824 2825
        2830 2833 2835 2837 2839 2844 2848 2849 2853 2858 2866 2867 2868
        2873 2874 2875 2876 2878 2879 2882 2887 2894 2905 2917 2921 2930
        2934 2947 2950 2953 2954 2955 2957 2960 2961 2963 2970 2986 2990
        3000 3002 3007 3011 3014 3017 3018 3023 3024 3025 3027 3028 3033
        3034 3035 3042 3044 3045 3052 3054 3055 3056 3060 3061 3063 3064
        3069 3077 3078 3083 3095 3096 3098 3100 3107 3108 3110 3111 3112
        3113 3114 3119 3120 3122 3123 3126 3131 3132 3133 3135 3138 3139
        3140 3155 3156 3167 3168 3174 3179 3180 3184 3185 3186 3187 3188
        3189 3191 3195 3197 3198 3199 3206 3210 3215 3219 3221 3226 3227
        3236 3237 3254 3264 3273 3278 3286 3287 3289 3290 3291 3295 3296
        3302 3306 3308 3311 3319 3322 3328 3330 3333 3338 3339 3340 3348
        3353 3357 3359 3363 3367 3374 3379 3383 3386 3388 3390 3392 3393
        3395 3398 3402 3404 3407 3429 3432 3433 3434 3436 3444 3447 3452
        3458 3461 3466 3467 3470 3474 3480 3485 3488 3490 3499 3500 3501
        3503 3506 3509 3510 3511 3512 3513 3517 3520 3526 3528 3529 3531
        3532 3539 3553 3558 3562 3582 3589 3590 3591 3592 3594 3598 3599
        3605 3606 3607 3611 3618 3619 3621 3622 3629 3632 3639 3646 3653
        3654 3655 3657 3659 3660 3663 3664 3666 3677 3678 3685 3689 3691
        3692 3693 3702 3706 3712 3716 3719 3721 3734 3761 3762 3769 3787
        3791 3792 3793 3800 3804 3806 3808 3809 3811 3812 3813 3814 3815
        3816 3820 3822 3824 3825 3826 3827 3828 3831 3836 3839 3846 3847
        3850 3854 3857 3859 3870 3871 3872 3873 3879 3882 3883 3889 3896
        3899 3901 3917 3934 3938 3939 3942 3944 3946 3954 3956 3958 3959
        3964 3966 3967 3974 3976 3977 3978 3979 3982 3984 3992 3993 3994
        4000 4009 4012 4013 4015 4016 4032 4033 4039 4041 4043 4049 4062
        4063 4066 4068 4070 4077 4083 4086 4088 4095 4103 4104 4105 4111
        4114 4115 4117 4133 4139 4144 4145 4154 4155 4156 4160 4161 4164
        4166 4167 4174 4183 4196 4198 4201 4202 4203 4205 4207 4208 4219
        4227 4228 4237 4238 4240 4243 4244 4246 4248 4249 4252 4256 4257
        4258 4261 4264 4266 4272 4273 4276 4278 4285 4289 4290 4292 4293
        4299 4300 4306 4309 4314 4317 4323 4324 4327 4328 4336 4345 4346
        4348 4350 4354 4357 4362 4364 4368 4371 4373 4375 4376 4379 4381
        4382 4385 4386 4388 4391 4394 4395 4396 4397 4404 4411 4414 4415
        4416 4418 4419 4421 4426 4427 4464 4469 4471 4482 4486 4498 4501
        4507 4512 4524 4525 4526 4527 4540 4541 4542 4550 4557 4564 4565
        4577 4582 4596 4598 4599 4600 4602 4603 4615 4619 4620 4621 4623
        4624 4626 4627 4628 4635 4638 4645 4647 4648 4649 4650 4651 4654
        4655 4663 4664 4665 4666 4667 4668 4669 4676 4677 4678 4679 4683
        4692 4693 4694 4695 4699 4700 4702 4705 4708 4709 4710 4714 4715
        4719 4720 4723 4725 4726 4728 4730 4731 4737 4738 4763 4767 4769
        4770 4772 4773 4775 4780 4781 4787 4788 4789 4790 4791 4792 4798
        4799 4805 4814 4823 4824 4838 4839 4840 4841 4843 4846 4852 4853
        4854 4855 4859 4862 4865 4886 4893 4895 4900 4905 4908 4909 4915
        4924 4929 4930 4936 4943 4944 4956 4957 4958 4960 4965 4974 4975
        4976 4982 4983 4984 4989 4995 4996 5020 5022 5023 5024 5054 5057
        5059 5061 5062 5073 5074 5075 5078 5083 5085 5090 5091 5092 5096
        5099 5107 5110 5118 5127 5149 5150 5159 5161 5162 5172 5176 5178
        5185 5202 5204 5205 5214 5215 5216 5218 5221 5223 5227 5229 5231
        5236 5238 5241 5242 5249 5256 5259 5260 5261 5265 5266 5267 5271
        5273 5277 5288 5290 5292 5295 5310 5311 5314 5315 5325 5327 5329
        5335 5337 5341 5346 5350 5352 5359 5368 5369 5371 5372 5376 5377
        5378 5382 5384 5385 5388 5390 5392 5394 5396 5398 5403 5412 5413
        5422 5423 5424 5426 5428 5429 5431 5457 5464 5471 5477 5478 5479
        5480 5490 5504 5510 5511 5512 5513 5514 5516 5525 5530 5534 5536
        5538 5539 5542 5544 5546 5549 5551 5553 5554 5555 5556 5558 5562
        5565 5566 5568 5576 5577 5581 5583 5584 5585 5587 5594 5595 5599
        5601 5606 5617 5618 5626 5627 5632 5648 5650 5681 5684 5687 5688
        5689 5691 5693 5695 5696 5701 5702 5707 5709 5711 5712 5718 5722
        5723 5731 5733 5734 5736 5737 5740 5741 5743 5744 5745 5746 5747
        5748 5749 5750 5751 5753 5771 5775 5782 5783 5786 5788 5789 5790
        5796 5798 5799 5800 5802 5813 5816 5818 5824 5834 5838 5842 5843
        5844 5851 5852 5854 5858 5859 5860 5861 5862 5875 5883 5884 5885
        5886 5888 5889 5892 5899 5906 5914 5920 5924 5928 5929 5932 5938
        5939 5943 5945 5958 5962 5967 5980 5981 5988 5991 5992 5997 5999
        6001 6011 6016 6018 6019 6021 6022 6023 6026 6027 6028 6033 6040
        6043 6070 6080 6082 6087 6089 6097 6103 6105 6107 6110 6112 6113
        6114 6120 6127 6135 6147 6149 6158 6159 6162 6164 6165 6168 6176
        6178 6180 6181 6185 6193 6194 6195 6196 6198 6200 6214 6217 6222
        6227 6231 6236 6237 6238 6244 6262 6267 6299 6301 6304 6306 6308
        6309 6327 6330 6332 6333 6335 6337 6338 6340 6341 6345 6346 6351
        6360 6364 6369 6371 6378 6380 6383 6385 6401 6402 6406 6410 6411
        6413 6414 6418 6419 6420 6423 6449 6450 6453 6454 6456 6459 6485
        6487 6492 6495 6511 6512 6532 6534 6535 6560 6564 6565 6571 6574
        6575 6576 6580 6581 6586 6589 6591 6592 6594 6595 6597 6599 6603
        6604 6616 6618 6621 6632 6634 6636 6637 6655 6657 6660 6661 6662
        6665 6666 6667 6669 6670 6672 6673 6679 6680 6681 6698 6716 6726
        6730 6743 6754 6755 6758 6762 6763 6764 6777 6779 6780 6782 6784
        6790 6795 6800 6801 6802 6803 6804 6834 6840 6842 6844 6852 6858
        6874 6889 6892 6893 6896 6898 6909 6912 6913 6915 6916 6917 6920
        6921 6925 6933 6937 6950 6952 6958 6959 6989 6990 7000 7025 7026
        7029 7030 7031 7032 7039 7057 7058 7059 7060 7065 7068 7069 7071
        7074 7076 7077 7078 7087 7107 7119 7137 7160 7161 7162 7163 7168
        7169 7173 7180 7181 7182 7187 7188 7203 7204 7206 7208 7209 7213
        7214 7216 7218 7226 7227 7233 7237 7238 7240 7247 7259 7261 7268
        7273 7278 7279 7287 7297 7299 7301 7304 7305 7322 7325 7326 7331
        7351 7358 7359 7362 7373 7383 7395 7397 7399 7414 7421 7424 7433
        7447 7458 7459 7461 7464 7466 7476 7483 7487 7493 7504 7505 7508
        7509 7510 7511 7534 7535 7536 7538 7568 7571 7573 7575 7578 7579
        7580 7583 7584 7585 7586 7587 7589 7590 7592 7595 7604 7605 7607
        7611 7616 7617 7618 7661 7683 7685 7719 7720 7722 7723 7725 7733
        7774 7776 7778 7785 7786 7787 7788 7793 7796 7799 7800 7801 7804
        7812 7813 7814 7816 7819 7838 7840 7843 7844 7845 7846 7851 7852
        7860 7866 7869 7872 7873 7879 7891 7943 7944 7949 7952 7953 7954
        7955 7956 7961 7962 7987 7993 8008 8015 8017 8019 8020 8021 8027
        8029 8033 8045 8055 8058 8067 8068 8078 8087 8096 8097 8101 8106
        8119 8126 8127 8139 8140 8148 8155 8160 8164 8167 8170 8175 8176
        8178 8190 8191 8199 8201 8202 8204 8214 8219 8221 8222 8234 8248
        8254 8255 8258 8261 8264 8266 8267 8284 8285 8286 8294 8303 8308
        8309 8311 8312 8317 8323 8326 8355 8356 8357 8358 8360 8361 8363
        8365 8366 8375 8376 8377 8378 8379 8383 8386 8388 8389 8393 8394
        8396 8397 8413 8416 8417 8418 8419 8422 8425 8433 8457 8458 8459
        8460 8461 8463 8465 8466 8468 8477 8480 8482 8490 8496 8502 8503
        8506 8509 8511 8512 8513 8521 8522 8524 8525 8526 8527 8546 8560
        8567 8568 8580 8582 8587 8596 8597 8600 8603 8606 8620 8621 8622
        8623 8632 8650 8668 8671 8672 8681 8682 8685 8689 8690 8691 8692
        8693 8694 8695 8696 8704 8715 8716 8730 8732 8737 8738 8739 8740
        8745 8746 8747 8757 8758 8762 8763 8766 8770 8771 8772 8773 8784
        8798 8800 8804 8805 8807 8820 8830 8839 8842 8854 8856 8871 8874
        8896 8897 8903 8913 8914 8915 8919 8920 8922 8924 8928 8929 8936
        8943 8944 8957 8958 8959 8960 8963 8964 8965 8967 8968 8969 8979
        8980 8986 8993 8996 8997 8999 9002 9003 9006 9007 9022 9027 9028
        9033 9034 9035 9038 9039 9045 9050 9052 9053 9054 9059 9060 9064
        9098 9099 9100 9103 9104 9117 9122 9124 9128 9130 9139 9146 9151
        9152 9156 9157 9158 9160 9162 9165 9166 9174 9176 9198 9199 9214
        9215 9216 9217 9218 9219 9226 9231 9232 9234 9237 9238 9246 9250
        9257 9258 9266 9269 9271 9272 9279 9287 9303 9305 9316 9330 9347
        9364 9366 9372 9375 9377 9384 9387 9390 9391 9398 9412 9417 9424
        9425 9426 9440 9441 9443 9456 9458 9459 9460 9474 9484 9509 9512
        9525 9526 9528 9543 9545 9546 9548 9549 9550 9551 9552 9553 9554
        9555 9556 9557 9572 9573 9579 9580 9581 9584 9587 9592 9595 9597
        9605 9607 9609 9610 9615 9616 9630 9631 9645 9648 9649 9650 9656
        9661 9662 9664 9674 9677 9679 9688 9689 9692 9699 9700 9701 9711
        9712 9713 9719 9720 9721 9722 9723 9729 9740 9742 9745 9748 9756
        9757 9762 9765 9776 9777 9783 9798 9807 9808 9809 9822 9823 9835
        9844 9845 9848 9849 9850 9860 9863 9864 9865 9870 9877 9878 9881
        9882 9891 9905 9908 9937 9938 9941 9949 9958 9975

  Surfaces:

INSTANCE LEVEL
  node sets:
    Instance name: PART-1-1
      node set name: SET-1
        number of nodes: 2607
        nodes: 
          1 2 3 4 5 6 7 8 9 10 11 12 13 14 15 16 17 18 19 20 21 22 23 24
          25 26 27 28 29 30 31 32 33 34 35 36 37 38 39 40 41 42 43 44 45
          46 47 48 49 50 51 52 53 54 55 56 57 58 59 60 61 62 63 64 65 66
          67 68 69 70 71 72 73 74 75 76 77 78 79 80 81 82 83 84 85 86 87
          88 89 90 91 92 93 94 95 96 97 98 99 100 101 102 103 104 105
          106 107 108 109 110 111 112 113 114 115 116 117 118 119 120
          121 122 123 124 125 126 127 128 129 130 131 132 133 134 135
          136 137 138 139 140 141 142 143 144 145 146 147 148 149 150
          151 152 153 154 155 156 157 158 159 160 161 162 163 164 165
          166 167 168 169 170 171 172 173 174 175 176 177 178 179 180
          181 182 183 184 185 186 187 188 189 190 191 192 193 194 195
          196 197 198 199 200 201 202 203 204 205 206 207 208 209 210
          211 212 213 214 215 216 217 218 219 220 221 222 223 224 225
          226 227 228 229 230 231 232 233 234 235 236 237 238 239 240
          241 242 243 244 245 246 247 248 249 250 251 252 253 254 255
          256 257 258 259 260 261 262 263 264 265 266 267 268 269 270
          271 272 273 274 275 276 277 278 279 280 281 282 283 284 285
          286 287 288 289 290 291 292 293 294 295 296 297 298 299 300
          301 302 303 304 305 306 307 308 309 310 311 312 313 314 315
          316 317 318 319 320 321 322 323 324 325 326 327 328 329 330
          331 332 333 334 335 336 337 338 339 340 341 342 343 344 345
          346 347 348 349 350 351 352 353 354 355 356 357 358 359 360
          361 362 363 364 365 366 367 368 369 370 371 372 373 374 375
          376 377 378 379 380 381 382 383 384 385 386 387 388 389 390
          391 392 393 394 395 396 397 398 399 400 401 402 403 404 405
          406 407 408 409 410 411 412 413 414 415 416 417 418 419 420
          421 422 423 424 425 426 427 428 429 430 431 432 433 434 435
          436 437 438 439 440 441 442 443 444 445 446 447 448 449 450
          451 452 453 454 455 456 457 458 459 460 461 462 463 464 465
          466 467 468 469 470 471 472 473 474 475 476 477 478 479 480
          481 482 483 484 485 486 487 488 489 490 491 492 493 494 495
          496 497 498 499 500 501 502 503 504 505 506 507 508 509 510
          511 512 513 514 515 516 517 518 519 520 521 522 523 524 525
          526 527 528 529 530 531 532 533 534 535 536 537 538 539 540
          541 542 543 544 545 546 547 548 549 550 551 552 553 554 555
          556 557 558 559 560 561 562 563 564 565 566 567 568 569 570
          571 572 573 574 575 576 577 578 579 580 581 582 583 584 585
          586 587 588 589 590 591 592 593 594 595 596 597 598 599 600
          601 602 603 604 605 606 607 608 609 610 611 612 613 614 615
          616 617 618 619 620 621 622 623 624 625 626 627 628 629 630
          631 632 633 634 635 636 637 638 639 640 641 642 643 644 645
          646 647 648 649 650 651 652 653 654 655 656 657 658 659 660
          661 662 663 664 665 666 667 668 669 670 671 672 673 674 675
          676 677 678 679 680 681 682 683 684 685 686 687 688 689 690
          691 692 693 694 695 696 697 698 699 700 701 702 703 704 705
          706 707 708 709 710 711 712 713 714 715 716 717 718 719 720
          721 722 723 724 725 726 727 728 729 730 731 732 733 734 735
          736 737 738 739 740 741 742 743 744 745 746 747 748 749 750
          751 752 753 754 755 756 757 758 759 760 761 762 763 764 765
          766 767 768 769 770 771 772 773 774 775 776 777 778 779 780
          781 782 783 784 785 786 787 788 789 790 791 792 793 794 795
          796 797 798 799 800 801 802 803 804 805 806 807 808 809 810
          811 812 813 814 815 816 817 818 819 820 821 822 823 824 825
          826 827 828 829 830 831 832 833 834 835 836 837 838 839 840
          841 842 843 844 845 846 847 848 849 850 851 852 853 854 855
          856 857 858 859 860 861 862 863 864 865 866 867 868 869 870
          871 872 873 874 875 876 877 878 879 880 881 882 883 884 885
          886 887 888 889 890 891 892 893 894 895 896 897 898 899 900
          901 902 903 904 905 906 907 908 909 910 911 912 913 914 915
          916 917 918 919 920 921 922 923 924 925 926 927 928 929 930
          931 932 933 934 935 936 937 938 939 940 941 942 943 944 945
          946 947 948 949 950 951 952 953 954 955 956 957 958 959 960
          961 962 963 964 965 966 967 968 969 970 971 972 973 974 975
          976 977 978 979 980 981 982 983 984 985 986 987 988 989 990
          991 992 993 994 995 996 997 998 999 1000 1001 1002 1003 1004
          1005 1006 1007 1008 1009 1010 1011 1012 1013 1014 1015 1016
          1017 1018 1019 1020 1021 1022 1023 1024 1025 1026 1027 1028
          1029 1030 1031 1032 1033 1034 1035 1036 1037 1038 1039 1040
          1041 1042 1043 1044 1045 1046 1047 1048 1049 1050 1051 1052
          1053 1054 1055 1056 1057 1058 1059 1060 1061 1062 1063 1064
          1065 1066 1067 1068 1069 1070 1071 1072 1073 1074 1075 1076
          1077 1078 1079 1080 1081 1082 1083 1084 1085 1086 1087 1088
          1089 1090 1091 1092 1093 1094 1095 1096 1097 1098 1099 1100
          1101 1102 1103 1104 1105 1106 1107 1108 1109 1110 1111 1112
          1113 1114 1115 1116 1117 1118 1119 1120 1121 1122 1123 1124
          1125 1126 1127 1128 1129 1130 1131 1132 1133 1134 1135 1136
          1137 1138 1139 1140 1141 1142 1143 1144 1145 1146 1147 1148
          1149 1150 1151 1152 1153 1154 1155 1156 1157 1158 1159 1160
          1161 1162 1163 1164 1165 1166 1167 1168 1169 1170 1171 1172
          1173 1174 1175 1176 1177 1178 1179 1180 1181 1182 1183 1184
          1185 1186 1187 1188 1189 1190 1191 1192 1193 1194 1195 1196
          1197 1198 1199 1200 1201 1202 1203 1204 1205 1206 1207 1208
          1209 1210 1211 1212 1213 1214 1215 1216 1217 1218 1219 1220
          1221 1222 1223 1224 1225 1226 1227 1228 1229 1230 1231 1232
          1233 1234 1235 1236 1237 1238 1239 1240 1241 1242 1243 1244
          1245 1246 1247 1248 1249 1250 1251 1252 1253 1254 1255 1256
          1257 1258 1259 1260 1261 1262 1263 1264 1265 1266 1267 1268
          1269 1270 1271 1272 1273 1274 1275 1276 1277 1278 1279 1280
          1281 1282 1283 1284 1285 1286 1287 1288 1289 1290 1291 1292
          1293 1294 1295 1296 1297 1298 1299 1300 1301 1302 1303 1304
          1305 1306 1307 1308 1309 1310 1311 1312 1313 1314 1315 1316
          1317 1318 1319 1320 1321 1322 1323 1324 1325 1326 1327 1328
          1329 1330 1331 1332 1333 1334 1335 1336 1337 1338 1339 1340
          1341 1342 1343 1344 1345 1346 1347 1348 1349 1350 1351 1352
          1353 1354 1355 1356 1357 1358 1359 1360 1361 1362 1363 1364
          1365 1366 1367 1368 1369 1370 1371 1372 1373 1374 1375 1376
          1377 1378 1379 1380 1381 1382 1383 1384 1385 1386 1387 1388
          1389 1390 1391 1392 1393 1394 1395 1396 1397 1398 1399 1400
          1401 1402 1403 1404 1405 1406 1407 1408 1409 1410 1411 1412
          1413 1414 1415 1416 1417 1418 1419 1420 1421 1422 1423 1424
          1425 1426 1427 1428 1429 1430 1431 1432 1433 1434 1435 1436
          1437 1438 1439 1440 1441 1442 1443 1444 1445 1446 1447 1448
          1449 1450 1451 1452 1453 1454 1455 1456 1457 1458 1459 1460
          1461 1462 1463 1464 1465 1466 1467 1468 1469 1470 1471 1472
          1473 1474 1475 1476 1477 1478 1479 1480 1481 1482 1483 1484
          1485 1486 1487 1488 1489 1490 1491 1492 1493 1494 1495 1496
          1497 1498 1499 1500 1501 1502 1503 1504 1505 1506 1507 1508
          1509 1510 1511 1512 1513 1514 1515 1516 1517 1518 1519 1520
          1521 1522 1523 1524 1525 1526 1527 1528 1529 1530 1531 1532
          1533 1534 1535 1536 1537 1538 1539 1540 1541 1542 1543 1544
          1545 1546 1547 1548 1549 1550 1551 1552 1553 1554 1555 1556
          1557 1558 1559 1560 1561 1562 1563 1564 1565 1566 1567 1568
          1569 1570 1571 1572 1573 1574 1575 1576 1577 1578 1579 1580
          1581 1582 1583 1584 1585 1586 1587 1588 1589 1590 1591 1592
          1593 1594 1595 1596 1597 1598 1599 1600 1601 1602 1603 1604
          1605 1606 1607 1608 1609 1610 1611 1612 1613 1614 1615 1616
          1617 1618 1619 1620 1621 1622 1623 1624 1625 1626 1627 1628
          1629 1630 1631 1632 1633 1634 1635 1636 1637 1638 1639 1640
          1641 1642 1643 1644 1645 1646 1647 1648 1649 1650 1651 1652
          1653 1654 1655 1656 1657 1658 1659 1660 1661 1662 1663 1664
          1665 1666 1667 1668 1669 1670 1671 1672 1673 1674 1675 1676
          1677 1678 1679 1680 1681 1682 1683 1684 1685 1686 1687 1688
          1689 1690 1691 1692 1693 1694 1695 1696 1697 1698 1699 1700
          1701 1702 1703 1704 1705 1706 1707 1708 1709 1710 1711 1712
          1713 1714 1715 1716 1717 1718 1719 1720 1721 1722 1723 1724
          1725 1726 1727 1728 1729 1730 1731 1732 1733 1734 1735 1736
          1737 1738 1739 1740 1741 1742 1743 1744 1745 1746 1747 1748
          1749 1750 1751 1752 1753 1754 1755 1756 1757 1758 1759 1760
          1761 1762 1763 1764 1765 1766 1767 1768 1769 1770 1771 1772
          1773 1774 1775 1776 1777 1778 1779 1780 1781 1782 1783 1784
          1785 1786 1787 1788 1789 1790 1791 1792 1793 1794 1795 1796
          1797 1798 1799 1800 1801 1802 1803 1804 1805 1806 1807 1808
          1809 1810 1811 1812 1813 1814 1815 1816 1817 1818 1819 1820
          1821 1822 1823 1824 1825 1826 1827 1828 1829 1830 1831 1832
          1833 1834 1835 1836 1837 1838 1839 1840 1841 1842 1843 1844
          1845 1846 1847 1848 1849 1850 1851 1852 1853 1854 1855 1856
          1857 1858 1859 1860 1861 1862 1863 1864 1865 1866 1867 1868
          1869 1870 1871 1872 1873 1874 1875 1876 1877 1878 1879 1880
          1881 1882 1883 1884 1885 1886 1887 1888 1889 1890 1891 1892
          1893 1894 1895 1896 1897 1898 1899 1900 1901 1902 1903 1904
          1905 1906 1907 1908 1909 1910 1911 1912 1913 1914 1915 1916
          1917 1918 1919 1920 1921 1922 1923 1924 1925 1926 1927 1928
          1929 1930 1931 1932 1933 1934 1935 1936 1937 1938 1939 1940
          1941 1942 1943 1944 1945 1946 1947 1948 1949 1950 1951 1952
          1953 1954 1955 1956 1957 1958 1959 1960 1961 1962 1963 1964
          1965 1966 1967 1968 1969 1970 1971 1972 1973 1974 1975 1976
          1977 1978 1979 1980 1981 1982 1983 1984 1985 1986 1987 1988
          1989 1990 1991 1992 1993 1994 1995 1996 1997 1998 1999 2000
          2001 2002 2003 2004 2005 2006 2007 2008 2009 2010 2011 2012
          2013 2014 2015 2016 2017 2018 2019 2020 2021 2022 2023 2024
          2025 2026 2027 2028 2029 2030 2031 2032 2033 2034 2035 2036
          2037 2038 2039 2040 2041 2042 2043 2044 2045 2046 2047 2048
          2049 2050 2051 2052 2053 2054 2055 2056 2057 2058 2059 2060
          2061 2062 2063 2064 2065 2066 2067 2068 2069 2070 2071 2072
          2073 2074 2075 2076 2077 2078 2079 2080 2081 2082 2083 2084
          2085 2086 2087 2088 2089 2090 2091 2092 2093 2094 2095 2096
          2097 2098 2099 2100 2101 2102 2103 2104 2105 2106 2107 2108
          2109 2110 2111 2112 2113 2114 2115 2116 2117 2118 2119 2120
          2121 2122 2123 2124 2125 2126 2127 2128 2129 2130 2131 2132
          2133 2134 2135 2136 2137 2138 2139 2140 2141 2142 2143 2144
          2145 2146 2147 2148 2149 2150 2151 2152 2153 2154 2155 2156
          2157 2158 2159 2160 2161 2162 2163 2164 2165 2166 2167 2168
          2169 2170 2171 2172 2173 2174 2175 2176 2177 2178 2179 2180
          2181 2182 2183 2184 2185 2186 2187 2188 2189 2190 2191 2192
          2193 2194 2195 2196 2197 2198 2199 2200 2201 2202 2203 2204
          2205 2206 2207 2208 2209 2210 2211 2212 2213 2214 2215 2216
          2217 2218 2219 2220 2221 2222 2223 2224 2225 2226 2227 2228
          2229 2230 2231 2232 2233 2234 2235 2236 2237 2238 2239 2240
          2241 2242 2243 2244 2245 2246 2247 2248 2249 2250 2251 2252
          2253 2254 2255 2256 2257 2258 2259 2260 2261 2262 2263 2264
          2265 2266 2267 2268 2269 2270 2271 2272 2273 2274 2275 2276
          2277 2278 2279 2280 2281 2282 2283 2284 2285 2286 2287 2288
          2289 2290 2291 2292 2293 2294 2295 2296 2297 2298 2299 2300
          2301 2302 2303 2304 2305 2306 2307 2308 2309 2310 2311 2312
          2313 2314 2315 2316 2317 2318 2319 2320 2321 2322 2323 2324
          2325 2326 2327 2328 2329 2330 2331 2332 2333 2334 2335 2336
          2337 2338 2339 2340 2341 2342 2343 2344 2345 2346 2347 2348
          2349 2350 2351 2352 2353 2354 2355 2356 2357 2358 2359 2360
          2361 2362 2363 2364 2365 2366 2367 2368 2369 2370 2371 2372
          2373 2374 2375 2376 2377 2378 2379 2380 2381 2382 2383 2384
          2385 2386 2387 2388 2389 2390 2391 2392 2393 2394 2395 2396
          2397 2398 2399 2400 2401 2402 2403 2404 2405 2406 2407 2408
          2409 2410 2411 2412 2413 2414 2415 2416 2417 2418 2419 2420
          2421 2422 2423 2424 2425 2426 2427 2428 2429 2430 2431 2432
          2433 2434 2435 2436 2437 2438 2439 2440 2441 2442 2443 2444
          2445 2446 2447 2448 2449 2450 2451 2452 2453 2454 2455 2456
          2457 2458 2459 2460 2461 2462 2463 2464 2465 2466 2467 2468
          2469 2470 2471 2472 2473 2474 2475 2476 2477 2478 2479 2480
          2481 2482 2483 2484 2485 2486 2487 2488 2489 2490 2491 2492
          2493 2494 2495 2496 2497 2498 2499 2500 2501 2502 2503 2504
          2505 2506 2507 2508 2509 2510 2511 2512 2513 2514 2515 2516
          2517 2518 2519 2520 2521 2522 2523 2524 2525 2526 2527 2528
          2529 2530 2531 2532 2533 2534 2535 2536 2537 2538 2539 2540
          2541 2542 2543 2544 2545 2546 2547 2548 2549 2550 2551 2552
          2553 2554 2555 2556 2557 2558 2559 2560 2561 2562 2563 2564
          2565 2566 2567 2568 2569 2570 2571 2572 2573 2574 2575 2576
          2577 2578 2579 2580 2581 2582 2583 2584 2585 2586 2587 2588
          2589 2590 2591 2592 2593 2594 2595 2596 2597 2598 2599 2600
          2601 2602 2603 2604 2605 2606 2607

  element sets:
    Instance name: PART-1-1
      element set name: SET-1
        number of elements: 9993
        elements: 
          1 2 3 4 5 6 7 8 9 10 11 12 13 14 15 16 17 18 19 20 21 22 23 24
          25 26 27 28 29 30 31 32 33 34 35 36 37 38 39 40 41 42 43 44 45
          46 47 48 49 50 51 52 53 54 55 56 57 58 59 60 61 62 63 64 65 66
          67 68 69 70 71 72 73 74 75 76 77 78 79 80 81 82 83 84 85 86 87
          88 89 90 91 92 93 94 95 96 97 98 99 100 101 102 103 104 105
          106 107 108 109 110 111 112 113 114 115 116 117 118 119 120
          121 122 123 124 125 126 127 128 129 130 131 132 133 134 135
          136 137 138 139 140 141 142 143 144 145 146 147 148 149 150
          151 152 153 154 155 156 157 158 159 160 161 162 163 164 165
          166 167 168 169 170 171 172 173 174 175 176 177 178 179 180
          181 182 183 184 185 186 187 188 189 190 191 192 193 194 195
          196 197 198 199 200 201 202 203 204 205 206 207 208 209 210
          211 212 213 214 215 216 217 218 219 220 221 222 223 224 225
          226 227 228 229 230 231 232 233 234 235 236 237 238 239 240
          241 242 243 244 245 246 247 248 249 250 251 252 253 254 255
          256 257 258 259 260 261 262 263 264 265 266 267 268 269 270
          271 272 273 274 275 276 277 278 279 280 281 282 283 284 285
          286 287 288 289 290 291 292 293 294 295 296 297 298 299 300
          301 302 303 304 305 306 307 308 309 310 311 312 313 314 315
          316 317 318 319 320 321 322 323 324 325 326 327 328 329 330
          331 332 333 334 335 336 337 338 339 340 341 342 343 344 345
          346 347 348 349 350 351 352 353 354 355 356 357 358 359 360
          361 362 363 364 365 366 367 368 369 370 371 372 373 374 375
          376 377 378 379 380 381 382 383 384 385 386 387 388 389 390
          391 392 393 394 395 396 397 398 399 400 401 402 403 404 405
          406 407 408 409 410 411 412 413 414 415 416 417 418 419 420
          421 422 423 424 425 426 427 428 429 430 431 432 433 434 435
          436 437 438 439 440 441 442 443 444 445 446 447 448 449 450
          451 452 453 454 455 456 457 458 459 460 461 462 463 464 465
          466 467 468 469 470 471 472 473 474 475 476 477 478 479 480
          481 482 483 484 485 486 487 488 489 490 491 492 493 494 495
          496 497 498 499 500 501 502 503 504 505 506 507 508 509 510
          511 512 513 514 515 516 517 518 519 520 521 522 523 524 525
          526 527 528 529 530 531 532 533 534 535 536 537 538 539 540
          541 542 543 544 545 546 547 548 549 550 551 552 553 554 555
          556 557 558 559 560 561 562 563 564 565 566 567 568 569 570
          571 572 573 574 575 576 577 578 579 580 581 582 583 584 585
          586 587 588 589 590 591 592 593 594 595 596 597 598 599 600
          601 602 603 604 605 606 607 608 609 610 611 612 613 614 615
          616 617 618 619 620 621 622 623 624 625 626 627 628 629 630
          631 632 633 634 635 636 637 638 639 640 641 642 643 644 645
          646 647 648 649 650 651 652 653 654 655 656 657 658 659 660
          661 662 663 664 665 666 667 668 669 670 671 672 673 674 675
          676 677 678 679 680 681 682 683 684 685 686 687 688 689 690
          691 692 693 694 695 696 697 698 699 700 701 702 703 704 705
          706 707 708 709 710 711 712 713 714 715 716 717 718 719 720
          721 722 723 724 725 726 727 728 729 730 731 732 733 734 735
          736 737 738 739 740 741 742 743 744 745 746 747 748 749 750
          751 752 753 754 755 756 757 758 759 760 761 762 763 764 765
          766 767 768 769 770 771 772 773 774 775 776 777 778 779 780
          781 782 783 784 785 786 787 788 789 790 791 792 793 794 795
          796 797 798 799 800 801 802 803 804 805 806 807 808 809 810
          811 812 813 814 815 816 817 818 819 820 821 822 823 824 825
          826 827 828 829 830 831 832 833 834 835 836 837 838 839 840
          841 842 843 844 845 846 847 848 849 850 851 852 853 854 855
          856 857 858 859 860 861 862 863 864 865 866 867 868 869 870
          871 872 873 874 875 876 877 878 879 880 881 882 883 884 885
          886 887 888 889 890 891 892 893 894 895 896 897 898 899 900
          901 902 903 904 905 906 907 908 909 910 911 912 913 914 915
          916 917 918 919 920 921 922 923 924 925 926 927 928 929 930
          931 932 933 934 935 936 937 938 939 940 941 942 943 944 945
          946 947 948 949 950 951 952 953 954 955 956 957 958 959 960
          961 962 963 964 965 966 967 968 969 970 971 972 973 974 975
          976 977 978 979 980 981 982 983 984 985 986 987 988 989 990
          991 992 993 994 995 996 997 998 999 1000 1001 1002 1003 1004
          1005 1006 1007 1008 1009 1010 1011 1012 1013 1014 1015 1016
          1017 1018 1019 1020 1021 1022 1023 1024 1025 1026 1027 1028
          1029 1030 1031 1032 1033 1034 1035 1036 1037 1038 1039 1040
          1041 1042 1043 1044 1045 1046 1047 1048 1049 1050 1051 1052
          1053 1054 1055 1056 1057 1058 1059 1060 1061 1062 1063 1064
          1065 1066 1067 1068 1069 1070 1071 1072 1073 1074 1075 1076
          1077 1078 1079 1080 1081 1082 1083 1084 1085 1086 1087 1088
          1089 1090 1091 1092 1093 1094 1095 1096 1097 1098 1099 1100
          1101 1102 1103 1104 1105 1106 1107 1108 1109 1110 1111 1112
          1113 1114 1115 1116 1117 1118 1119 1120 1121 1122 1123 1124
          1125 1126 1127 1128 1129 1130 1131 1132 1133 1134 1135 1136
          1137 1138 1139 1140 1141 1142 1143 1144 1145 1146 1147 1148
          1149 1150 1151 1152 1153 1154 1155 1156 1157 1158 1159 1160
          1161 1162 1163 1164 1165 1166 1167 1168 1169 1170 1171 1172
          1173 1174 1175 1176 1177 1178 1179 1180 1181 1182 1183 1184
          1185 1186 1187 1188 1189 1190 1191 1192 1193 1194 1195 1196
          1197 1198 1199 1200 1201 1202 1203 1204 1205 1206 1207 1208
          1209 1210 1211 1212 1213 1214 1215 1216 1217 1218 1219 1220
          1221 1222 1223 1224 1225 1226 1227 1228 1229 1230 1231 1232
          1233 1234 1235 1236 1237 1238 1239 1240 1241 1242 1243 1244
          1245 1246 1247 1248 1249 1250 1251 1252 1253 1254 1255 1256
          1257 1258 1259 1260 1261 1262 1263 1264 1265 1266 1267 1268
          1269 1270 1271 1272 1273 1274 1275 1276 1277 1278 1279 1280
          1281 1282 1283 1284 1285 1286 1287 1288 1289 1290 1291 1292
          1293 1294 1295 1296 1297 1298 1299 1300 1301 1302 1303 1304
          1305 1306 1307 1308 1309 1310 1311 1312 1313 1314 1315 1316
          1317 1318 1319 1320 1321 1322 1323 1324 1325 1326 1327 1328
          1329 1330 1331 1332 1333 1334 1335 1336 1337 1338 1339 1340
          1341 1342 1343 1344 1345 1346 1347 1348 1349 1350 1351 1352
          1353 1354 1355 1356 1357 1358 1359 1360 1361 1362 1363 1364
          1365 1366 1367 1368 1369 1370 1371 1372 1373 1374 1375 1376
          1377 1378 1379 1380 1381 1382 1383 1384 1385 1386 1387 1388
          1389 1390 1391 1392 1393 1394 1395 1396 1397 1398 1399 1400
          1401 1402 1403 1404 1405 1406 1407 1408 1409 1410 1411 1412
          1413 1414 1415 1416 1417 1418 1419 1420 1421 1422 1423 1424
          1425 1426 1427 1428 1429 1430 1431 1432 1433 1434 1435 1436
          1437 1438 1439 1440 1441 1442 1443 1444 1445 1446 1447 1448
          1449 1450 1451 1452 1453 1454 1455 1456 1457 1458 1459 1460
          1461 1462 1463 1464 1465 1466 1467 1468 1469 1470 1471 1472
          1473 1474 1475 1476 1477 1478 1479 1480 1481 1482 1483 1484
          1485 1486 1487 1488 1489 1490 1491 1492 1493 1494 1495 1496
          1497 1498 1499 1500 1501 1502 1503 1504 1505 1506 1507 1508
          1509 1510 1511 1512 1513 1514 1515 1516 1517 1518 1519 1520
          1521 1522 1523 1524 1525 1526 1527 1528 1529 1530 1531 1532
          1533 1534 1535 1536 1537 1538 1539 1540 1541 1542 1543 1544
          1545 1546 1547 1548 1549 1550 1551 1552 1553 1554 1555 1556
          1557 1558 1559 1560 1561 1562 1563 1564 1565 1566 1567 1568
          1569 1570 1571 1572 1573 1574 1575 1576 1577 1578 1579 1580
          1581 1582 1583 1584 1585 1586 1587 1588 1589 1590 1591 1592
          1593 1594 1595 1596 1597 1598 1599 1600 1601 1602 1603 1604
          1605 1606 1607 1608 1609 1610 1611 1612 1613 1614 1615 1616
          1617 1618 1619 1620 1621 1622 1623 1624 1625 1626 1627 1628
          1629 1630 1631 1632 1633 1634 1635 1636 1637 1638 1639 1640
          1641 1642 1643 1644 1645 1646 1647 1648 1649 1650 1651 1652
          1653 1654 1655 1656 1657 1658 1659 1660 1661 1662 1663 1664
          1665 1666 1667 1668 1669 1670 1671 1672 1673 1674 1675 1676
          1677 1678 1679 1680 1681 1682 1683 1684 1685 1686 1687 1688
          1689 1690 1691 1692 1693 1694 1695 1696 1697 1698 1699 1700
          1701 1702 1703 1704 1705 1706 1707 1708 1709 1710 1711 1712
          1713 1714 1715 1716 1717 1718 1719 1720 1721 1722 1723 1724
          1725 1726 1727 1728 1729 1730 1731 1732 1733 1734 1735 1736
          1737 1738 1739 1740 1741 1742 1743 1744 1745 1746 1747 1748
          1749 1750 1751 1752 1753 1754 1755 1756 1757 1758 1759 1760
          1761 1762 1763 1764 1765 1766 1767 1768 1769 1770 1771 1772
          1773 1774 1775 1776 1777 1778 1779 1780 1781 1782 1783 1784
          1785 1786 1787 1788 1789 1790 1791 1792 1793 1794 1795 1796
          1797 1798 1799 1800 1801 1802 1803 1804 1805 1806 1807 1808
          1809 1810 1811 1812 1813 1814 1815 1816 1817 1818 1819 1820
          1821 1822 1823 1824 1825 1826 1827 1828 1829 1830 1831 1832
          1833 1834 1835 1836 1837 1838 1839 1840 1841 1842 1843 1844
          1845 1846 1847 1848 1849 1850 1851 1852 1853 1854 1855 1856
          1857 1858 1859 1860 1861 1862 1863 1864 1865 1866 1867 1868
          1869 1870 1871 1872 1873 1874 1875 1876 1877 1878 1879 1880
          1881 1882 1883 1884 1885 1886 1887 1888 1889 1890 1891 1892
          1893 1894 1895 1896 1897 1898 1899 1900 1901 1902 1903 1904
          1905 1906 1907 1908 1909 1910 1911 1912 1913 1914 1915 1916
          1917 1918 1919 1920 1921 1922 1923 1924 1925 1926 1927 1928
          1929 1930 1931 1932 1933 1934 1935 1936 1937 1938 1939 1940
          1941 1942 1943 1944 1945 1946 1947 1948 1949 1950 1951 1952
          1953 1954 1955 1956 1957 1958 1959 1960 1961 1962 1963 1964
          1965 1966 1967 1968 1969 1970 1971 1972 1973 1974 1975 1976
          1977 1978 1979 1980 1981 1982 1983 1984 1985 1986 1987 1988
          1989 1990 1991 1992 1993 1994 1995 1996 1997 1998 1999 2000
          2001 2002 2003 2004 2005 2006 2007 2008 2009 2010 2011 2012
          2013 2014 2015 2016 2017 2018 2019 2020 2021 2022 2023 2024
          2025 2026 2027 2028 2029 2030 2031 2032 2033 2034 2035 2036
          2037 2038 2039 2040 2041 2042 2043 2044 2045 2046 2047 2048
          2049 2050 2051 2052 2053 2054 2055 2056 2057 2058 2059 2060
          2061 2062 2063 2064 2065 2066 2067 2068 2069 2070 2071 2072
          2073 2074 2075 2076 2077 2078 2079 2080 2081 2082 2083 2084
          2085 2086 2087 2088 2089 2090 2091 2092 2093 2094 2095 2096
          2097 2098 2099 2100 2101 2102 2103 2104 2105 2106 2107 2108
          2109 2110 2111 2112 2113 2114 2115 2116 2117 2118 2119 2120
          2121 2122 2123 2124 2125 2126 2127 2128 2129 2130 2131 2132
          2133 2134 2135 2136 2137 2138 2139 2140 2141 2142 2143 2144
          2145 2146 2147 2148 2149 2150 2151 2152 2153 2154 2155 2156
          2157 2158 2159 2160 2161 2162 2163 2164 2165 2166 2167 2168
          2169 2170 2171 2172 2173 2174 2175 2176 2177 2178 2179 2180
          2181 2182 2183 2184 2185 2186 2187 2188 2189 2190 2191 2192
          2193 2194 2195 2196 2197 2198 2199 2200 2201 2202 2203 2204
          2205 2206 2207 2208 2209 2210 2211 2212 2213 2214 2215 2216
          2217 2218 2219 2220 2221 2222 2223 2224 2225 2226 2227 2228
          2229 2230 2231 2232 2233 2234 2235 2236 2237 2238 2239 2240
          2241 2242 2243 2244 2245 2246 2247 2248 2249 2250 2251 2252
          2253 2254 2255 2256 2257 2258 2259 2260 2261 2262 2263 2264
          2265 2266 2267 2268 2269 2270 2271 2272 2273 2274 2275 2276
          2277 2278 2279 2280 2281 2282 2283 2284 2285 2286 2287 2288
          2289 2290 2291 2292 2293 2294 2295 2296 2297 2298 2299 2300
          2301 2302 2303 2304 2305 2306 2307 2308 2309 2310 2311 2312
          2313 2314 2315 2316 2317 2318 2319 2320 2321 2322 2323 2324
          2325 2326 2327 2328 2329 2330 2331 2332 2333 2334 2335 2336
          2337 2338 2339 2340 2341 2342 2343 2344 2345 2346 2347 2348
          2349 2350 2351 2352 2353 2354 2355 2356 2357 2358 2359 2360
          2361 2362 2363 2364 2365 2366 2367 2368 2369 2370 2371 2372
          2373 2374 2375 2376 2377 2378 2379 2380 2381 2382 2383 2384
          2385 2386 2387 2388 2389 2390 2391 2392 2393 2394 2395 2396
          2397 2398 2399 2400 2401 2402 2403 2404 2405 2406 2407 2408
          2409 2410 2411 2412 2413 2414 2415 2416 2417 2418 2419 2420
          2421 2422 2423 2424 2425 2426 2427 2428 2429 2430 2431 2432
          2433 2434 2435 2436 2437 2438 2439 2440 2441 2442 2443 2444
          2445 2446 2447 2448 2449 2450 2451 2452 2453 2454 2455 2456
          2457 2458 2459 2460 2461 2462 2463 2464 2465 2466 2467 2468
          2469 2470 2471 2472 2473 2474 2475 2476 2477 2478 2479 2480
          2481 2482 2483 2484 2485 2486 2487 2488 2489 2490 2491 2492
          2493 2494 2495 2496 2497 2498 2499 2500 2501 2502 2503 2504
          2505 2506 2507 2508 2509 2510 2511 2512 2513 2514 2515 2516
          2517 2518 2519 2520 2521 2522 2523 2524 2525 2526 2527 2528
          2529 2530 2531 2532 2533 2534 2535 2536 2537 2538 2539 2540
          2541 2542 2543 2544 2545 2546 2547 2548 2549 2550 2551 2552
          2553 2554 2555 2556 2557 2558 2559 2560 2561 2562 2563 2564
          2565 2566 2567 2568 2569 2570 2571 2572 2573 2574 2575 2576
          2577 2578 2579 2580 2581 2582 2583 2584 2585 2586 2587 2588
          2589 2590 2591 2592 2593 2594 2595 2596 2597 2598 2599 2600
          2601 2602 2603 2604 2605 2606 2607 2608 2609 2610 2611 2612
          2613 2614 2615 2616 2617 2618 2619 2620 2621 2622 2623 2624
          2625 2626 2627 2628 2629 2630 2631 2632 2633 2634 2635 2636
          2637 2638 2639 2640 2641 2642 2643 2644 2645 2646 2647 2648
          2649 2650 2651 2652 2653 2654 2655 2656 2657 2658 2659 2660
          2661 2662 2663 2664 2665 2666 2667 2668 2669 2670 2671 2672
          2673 2674 2675 2676 2677 2678 2679 2680 2681 2682 2683 2684
          2685 2686 2687 2688 2689 2690 2691 2692 2693 2694 2695 2696
          2697 2698 2699 2700 2701 2702 2703 2704 2705 2706 2707 2708
          2709 2710 2711 2712 2713 2714 2715 2716 2717 2718 2719 2720
          2721 2722 2723 2724 2725 2726 2727 2728 2729 2730 2731 2732
          2733 2734 2735 2736 2737 2738 2739 2740 2741 2742 2743 2744
          2745 2746 2747 2748 2749 2750 2751 2752 2753 2754 2755 2756
          2757 2758 2759 2760 2761 2762 2763 2764 2765 2766 2767 2768
          2769 2770 2771 2772 2773 2774 2775 2776 2777 2778 2779 2780
          2781 2782 2783 2784 2785 2786 2787 2788 2789 2790 2791 2792
          2793 2794 2795 2796 2797 2798 2799 2800 2801 2802 2803 2804
          2805 2806 2807 2808 2809 2810 2811 2812 2813 2814 2815 2816
          2817 2818 2819 2820 2821 2822 2823 2824 2825 2826 2827 2828
          2829 2830 2831 2832 2833 2834 2835 2836 2837 2838 2839 2840
          2841 2842 2843 2844 2845 2846 2847 2848 2849 2850 2851 2852
          2853 2854 2855 2856 2857 2858 2859 2860 2861 2862 2863 2864
          2865 2866 2867 2868 2869 2870 2871 2872 2873 2874 2875 2876
          2877 2878 2879 2880 2881 2882 2883 2884 2885 2886 2887 2888
          2889 2890 2891 2892 2893 2894 2895 2896 2897 2898 2899 2900
          2901 2902 2903 2904 2905 2906 2907 2908 2909 2910 2911 2912
          2913 2914 2915 2916 2917 2918 2919 2920 2921 2922 2923 2924
          2925 2926 2927 2928 2929 2930 2931 2932 2933 2934 2935 2936
          2937 2938 2939 2940 2941 2942 2943 2944 2945 2946 2947 2948
          2949 2950 2951 2952 2953 2954 2955 2956 2957 2958 2959 2960
          2961 2962 2963 2964 2965 2966 2967 2968 2969 2970 2971 2972
          2973 2974 2975 2976 2977 2978 2979 2980 2981 2982 2983 2984
          2985 2986 2987 2988 2989 2990 2991 2992 2993 2994 2995 2996
          2997 2998 2999 3000 3001 3002 3003 3004 3005 3006 3007 3008
          3009 3010 3011 3012 3013 3014 3015 3016 3017 3018 3019 3020
          3021 3022 3023 3024 3025 3026 3027 3028 3029 3030 3031 3032
          3033 3034 3035 3036 3037 3038 3039 3040 3041 3042 3043 3044
          3045 3046 3047 3048 3049 3050 3051 3052 3053 3054 3055 3056
          3057 3058 3059 3060 3061 3062 3063 3064 3065 3066 3067 3068
          3069 3070 3071 3072 3073 3074 3075 3076 3077 3078 3079 3080
          3081 3082 3083 3084 3085 3086 3087 3088 3089 3090 3091 3092
          3093 3094 3095 3096 3097 3098 3099 3100 3101 3102 3103 3104
          3105 3106 3107 3108 3109 3110 3111 3112 3113 3114 3115 3116
          3117 3118 3119 3120 3121 3122 3123 3124 3125 3126 3127 3128
          3129 3130 3131 3132 3133 3134 3135 3136 3137 3138 3139 3140
          3141 3142 3143 3144 3145 3146 3147 3148 3149 3150 3151 3152
          3153 3154 3155 3156 3157 3158 3159 3160 3161 3162 3163 3164
          3165 3166 3167 3168 3169 3170 3171 3172 3173 3174 3175 3176
          3177 3178 3179 3180 3181 3182 3183 3184 3185 3186 3187 3188
          3189 3190 3191 3192 3193 3194 3195 3196 3197 3198 3199 3200
          3201 3202 3203 3204 3205 3206 3207 3208 3209 3210 3211 3212
          3213 3214 3215 3216 3217 3218 3219 3220 3221 3222 3223 3224
          3225 3226 3227 3228 3229 3230 3231 3232 3233 3234 3235 3236
          3237 3238 3239 3240 3241 3242 3243 3244 3245 3246 3247 3248
          3249 3250 3251 3252 3253 3254 3255 3256 3257 3258 3259 3260
          3261 3262 3263 3264 3265 3266 3267 3268 3269 3270 3271 3272
          3273 3274 3275 3276 3277 3278 3279 3280 3281 3282 3283 3284
          3285 3286 3287 3288 3289 3290 3291 3292 3293 3294 3295 3296
          3297 3298 3299 3300 3301 3302 3303 3304 3305 3306 3307 3308
          3309 3310 3311 3312 3313 3314 3315 3316 3317 3318 3319 3320
          3321 3322 3323 3324 3325 3326 3327 3328 3329 3330 3331 3332
          3333 3334 3335 3336 3337 3338 3339 3340 3341 3342 3343 3344
          3345 3346 3347 3348 3349 3350 3351 3352 3353 3354 3355 3356
          3357 3358 3359 3360 3361 3362 3363 3364 3365 3366 3367 3368
          3369 3370 3371 3372 3373 3374 3375 3376 3377 3378 3379 3380
          3381 3382 3383 3384 3385 3386 3387 3388 3389 3390 3391 3392
          3393 3394 3395 3396 3397 3398 3399 3400 3401 3402 3403 3404
          3405 3406 3407 3408 3409 3410 3411 3412 3413 3414 3415 3416
          3417 3418 3419 3420 3421 3422 3423 3424 3425 3426 3427 3428
          3429 3430 3431 3432 3433 3434 3435 3436 3437 3438 3439 3440
          3441 3442 3443 3444 3445 3446 3447 3448 3449 3450 3451 3452
          3453 3454 3455 3456 3457 3458 3459 3460 3461 3462 3463 3464
          3465 3466 3467 3468 3469 3470 3471 3472 3473 3474 3475 3476
          3477 3478 3479 3480 3481 3482 3483 3484 3485 3486 3487 3488
          3489 3490 3491 3492 3493 3494 3495 3496 3497 3498 3499 3500
          3501 3502 3503 3504 3505 3506 3507 3508 3509 3510 3511 3512
          3513 3514 3515 3516 3517 3518 3519 3520 3521 3522 3523 3524
          3525 3526 3527 3528 3529 3530 3531 3532 3533 3534 3535 3536
          3537 3538 3539 3540 3541 3542 3543 3544 3545 3546 3547 3548
          3549 3550 3551 3552 3553 3554 3555 3556 3557 3558 3559 3560
          3561 3562 3563 3564 3565 3566 3567 3568 3569 3570 3571 3572
          3573 3574 3575 3576 3577 3578 3579 3580 3581 3582 3583 3584
          3585 3586 3587 3588 3589 3590 3591 3592 3593 3594 3595 3596
          3597 3598 3599 3600 3601 3602 3603 3604 3605 3606 3607 3608
          3609 3610 3611 3612 3613 3614 3615 3616 3617 3618 3619 3620
          3621 3622 3623 3624 3625 3626 3627 3628 3629 3630 3631 3632
          3633 3634 3635 3636 3637 3638 3639 3640 3641 3642 3643 3644
          3645 3646 3647 3648 3649 3650 3651 3652 3653 3654 3655 3656
          3657 3658 3659 3660 3661 3662 3663 3664 3665 3666 3667 3668
          3669 3670 3671 3672 3673 3674 3675 3676 3677 3678 3679 3680
          3681 3682 3683 3684 3685 3686 3687 3688 3689 3690 3691 3692
          3693 3694 3695 3696 3697 3698 3699 3700 3701 3702 3703 3704
          3705 3706 3707 3708 3709 3710 3711 3712 3713 3714 3715 3716
          3717 3718 3719 3720 3721 3722 3723 3724 3725 3726 3727 3728
          3729 3730 3731 3732 3733 3734 3735 3736 3737 3738 3739 3740
          3741 3742 3743 3744 3745 3746 3747 3748 3749 3750 3751 3752
          3753 3754 3755 3756 3757 3758 3759 3760 3761 3762 3763 3764
          3765 3766 3767 3768 3769 3770 3771 3772 3773 3774 3775 3776
          3777 3778 3779 3780 3781 3782 3783 3784 3785 3786 3787 3788
          3789 3790 3791 3792 3793 3794 3795 3796 3797 3798 3799 3800
          3801 3802 3803 3804 3805 3806 3807 3808 3809 3810 3811 3812
          3813 3814 3815 3816 3817 3818 3819 3820 3821 3822 3823 3824
          3825 3826 3827 3828 3829 3830 3831 3832 3833 3834 3835 3836
          3837 3838 3839 3840 3841 3842 3843 3844 3845 3846 3847 3848
          3849 3850 3851 3852 3853 3854 3855 3856 3857 3858 3859 3860
          3861 3862 3863 3864 3865 3866 3867 3868 3869 3870 3871 3872
          3873 3874 3875 3876 3877 3878 3879 3880 3881 3882 3883 3884
          3885 3886 3887 3888 3889 3890 3891 3892 3893 3894 3895 3896
          3897 3898 3899 3900 3901 3902 3903 3904 3905 3906 3907 3908
          3909 3910 3911 3912 3913 3914 3915 3916 3917 3918 3919 3920
          3921 3922 3923 3924 3925 3926 3927 3928 3929 3930 3931 3932
          3933 3934 3935 3936 3937 3938 3939 3940 3941 3942 3943 3944
          3945 3946 3947 3948 3949 3950 3951 3952 3953 3954 3955 3956
          3957 3958 3959 3960 3961 3962 3963 3964 3965 3966 3967 3968
          3969 3970 3971 3972 3973 3974 3975 3976 3977 3978 3979 3980
          3981 3982 3983 3984 3985 3986 3987 3988 3989 3990 3991 3992
          3993 3994 3995 3996 3997 3998 3999 4000 4001 4002 4003 4004
          4005 4006 4007 4008 4009 4010 4011 4012 4013 4014 4015 4016
          4017 4018 4019 4020 4021 4022 4023 4024 4025 4026 4027 4028
          4029 4030 4031 4032 4033 4034 4035 4036 4037 4038 4039 4040
          4041 4042 4043 4044 4045 4046 4047 4048 4049 4050 4051 4052
          4053 4054 4055 4056 4057 4058 4059 4060 4061 4062 4063 4064
          4065 4066 4067 4068 4069 4070 4071 4072 4073 4074 4075 4076
          4077 4078 4079 4080 4081 4082 4083 4084 4085 4086 4087 4088
          4089 4090 4091 4092 4093 4094 4095 4096 4097 4098 4099 4100
          4101 4102 4103 4104 4105 4106 4107 4108 4109 4110 4111 4112
          4113 4114 4115 4116 4117 4118 4119 4120 4121 4122 4123 4124
          4125 4126 4127 4128 4129 4130 4131 4132 4133 4134 4135 4136
          4137 4138 4139 4140 4141 4142 4143 4144 4145 4146 4147 4148
          4149 4150 4151 4152 4153 4154 4155 4156 4157 4158 4159 4160
          4161 4162 4163 4164 4165 4166 4167 4168 4169 4170 4171 4172
          4173 4174 4175 4176 4177 4178 4179 4180 4181 4182 4183 4184
          4185 4186 4187 4188 4189 4190 4191 4192 4193 4194 4195 4196
          4197 4198 4199 4200 4201 4202 4203 4204 4205 4206 4207 4208
          4209 4210 4211 4212 4213 4214 4215 4216 4217 4218 4219 4220
          4221 4222 4223 4224 4225 4226 4227 4228 4229 4230 4231 4232
          4233 4234 4235 4236 4237 4238 4239 4240 4241 4242 4243 4244
          4245 4246 4247 4248 4249 4250 4251 4252 4253 4254 4255 4256
          4257 4258 4259 4260 4261 4262 4263 4264 4265 4266 4267 4268
          4269 4270 4271 4272 4273 4274 4275 4276 4277 4278 4279 4280
          4281 4282 4283 4284 4285 4286 4287 4288 4289 4290 4291 4292
          4293 4294 4295 4296 4297 4298 4299 4300 4301 4302 4303 4304
          4305 4306 4307 4308 4309 4310 4311 4312 4313 4314 4315 4316
          4317 4318 4319 4320 4321 4322 4323 4324 4325 4326 4327 4328
          4329 4330 4331 4332 4333 4334 4335 4336 4337 4338 4339 4340
          4341 4342 4343 4344 4345 4346 4347 4348 4349 4350 4351 4352
          4353 4354 4355 4356 4357 4358 4359 4360 4361 4362 4363 4364
          4365 4366 4367 4368 4369 4370 4371 4372 4373 4374 4375 4376
          4377 4378 4379 4380 4381 4382 4383 4384 4385 4386 4387 4388
          4389 4390 4391 4392 4393 4394 4395 4396 4397 4398 4399 4400
          4401 4402 4403 4404 4405 4406 4407 4408 4409 4410 4411 4412
          4413 4414 4415 4416 4417 4418 4419 4420 4421 4422 4423 4424
          4425 4426 4427 4428 4429 4430 4431 4432 4433 4434 4435 4436
          4437 4438 4439 4440 4441 4442 4443 4444 4445 4446 4447 4448
          4449 4450 4451 4452 4453 4454 4455 4456 4457 4458 4459 4460
          4461 4462 4463 4464 4465 4466 4467 4468 4469 4470 4471 4472
          4473 4474 4475 4476 4477 4478 4479 4480 4481 4482 4483 4484
          4485 4486 4487 4488 4489 4490 4491 4492 4493 4494 4495 4496
          4497 4498 4499 4500 4501 4502 4503 4504 4505 4506 4507 4508
          4509 4510 4511 4512 4513 4514 4515 4516 4517 4518 4519 4520
          4521 4522 4523 4524 4525 4526 4527 4528 4529 4530 4531 4532
          4533 4534 4535 4536 4537 4538 4539 4540 4541 4542 4543 4544
          4545 4546 4547 4548 4549 4550 4551 4552 4553 4554 4555 4556
          4557 4558 4559 4560 4561 4562 4563 4564 4565 4566 4567 4568
          4569 4570 4571 4572 4573 4574 4575 4576 4577 4578 4579 4580
          4581 4582 4583 4584 4585 4586 4587 4588 4589 4590 4591 4592
          4593 4594 4595 4596 4597 4598 4599 4600 4601 4602 4603 4604
          4605 4606 4607 4608 4609 4610 4611 4612 4613 4614 4615 4616
          4617 4618 4619 4620 4621 4622 4623 4624 4625 4626 4627 4628
          4629 4630 4631 4632 4633 4634 4635 4636 4637 4638 4639 4640
          4641 4642 4643 4644 4645 4646 4647 4648 4649 4650 4651 4652
          4653 4654 4655 4656 4657 4658 4659 4660 4661 4662 4663 4664
          4665 4666 4667 4668 4669 4670 4671 4672 4673 4674 4675 4676
          4677 4678 4679 4680 4681 4682 4683 4684 4685 4686 4687 4688
          4689 4690 4691 4692 4693 4694 4695 4696 4697 4698 4699 4700
[...]
        145     -3.4800424E-04
        146     -2.1875162E-04
        147     -3.2605804E-04
        148     -4.1927907E-04
        149     -1.5814280E-04
        150     -2.7641898E-04
        151     -3.5390371E-04
        152     -2.6070026E-04
        153     -2.2727992E-04
        154     -1.4954473E-04
        155     -2.5371481E-04
        156     -2.3973423E-04
        157     -3.8948657E-04
        158     -1.8114851E-04
        159     -3.6034057E-04
        160     -1.9307051E-04
        161     -3.3259744E-04
        162     -4.1852552E-04
        163     -2.3309277E-04
        164     -4.5220243E-04
        165     -5.1895988E-04
        166     -4.1787232E-04
        167     -5.0332306E-04
        168     -5.5622620E-04
        169     -4.9756273E-04
        170     -5.4947026E-04
        171     -4.7968373E-04
        172     -8.3806294E-04
        173     -3.8451910E-04
        174     -5.8317373E-04
        175     -5.8150467E-04
        176     -6.8050643E-04
        177     -4.2757897E-04
        178     -7.9787508E-04
        179     -3.5441976E-04
        180     -5.5288792E-04
        181     -2.8916052E-04
        182     -3.1277232E-04
        183     -1.5469314E-04
        184     -4.6582732E-04
        185     -1.3277192E-04
        186      6.5449385E-05
        187     -2.5780468E-04
        188     -2.7119588E-04
        194     -4.6215731E-04
        195     -3.0487511E-04
        196     -3.7614580E-04
        293     -1.4053256E-03
        294      7.4891465E-05
        295     -3.5615353E-04
        296     -1.8639342E-04
        297     -3.8868627E-04
        298     -1.8552508E-04
        299     -2.9931791E-04
        300     -3.7088170E-04
        301     -2.7970678E-04
        302     -2.0186564E-04
        303     -1.6680829E-04
        304     -3.1375343E-04
        305     -2.5882733E-04
        306     -1.5528462E-04
        307     -2.7185789E-04
        308     -2.5830271E-04
        309     -1.8653921E-04
        310     -3.8913519E-04
        311     -2.1729668E-04
        312     -2.9661784E-04
        313     -3.4537455E-04
        314     -4.2575133E-04
        315     -2.3481053E-04
        316     -2.6190844E-04
        317     -4.6275610E-04
        318     -7.0479204E-04
        319     -4.1865549E-04
        320     -5.1027916E-04
        321     -6.2173460E-04
        322     -3.5122060E-04
        323     -8.8571741E-04
        324     -5.4818992E-04
        325     -6.2865940E-04
        326     -6.2914602E-04
        327     -4.2686960E-04
        328     -8.8733913E-04
        329     -6.7369148E-04
        330     -4.5606200E-04
        331     -7.1856594E-04
        332     -5.6437837E-04
        333     -6.3811148E-04
        334     -6.5141394E-04
        335     -7.5350196E-04
        336     -4.0836400E-04
        337     -6.3490166E-04
        338     -5.3245641E-04
        339     -5.2300636E-04
        340     -4.3741864E-04
        341     -3.6151413E-04
        342     -2.6515570E-04
        343     -5.0452391E-04
        344     -3.0823284E-04
        345     -2.1893725E-04
        346     -3.9434692E-04
        347     -1.6461969E-04
        348     -2.6151393E-04
        349     -3.8073429E-04
        350     -2.0342696E-04
        351     -2.3752888E-04
        352     -2.2393829E-04
        353     -2.8488726E-04
        354     -1.5854068E-04
        355     -3.0624194E-04
        356     -1.6832794E-04
        357     -4.5036733E-04
        358     -2.1822285E-04
        359     -3.4321639E-04
        360     -3.2996900E-04
        361     -3.6644339E-04
        362     -4.4892225E-04
        363     -2.3389445E-04
        364     -5.5069184E-04
        365     -5.0611971E-04
        366     -5.4791550E-04
        367     -3.5821478E-04
        368     -7.4814151E-04
        369     -3.6365071E-04
        370     -7.2572027E-04
        371     -5.9538295E-04
        372     -5.7929192E-04
        373     -6.4740743E-04
        374     -5.7028648E-04
        375     -5.1879951E-04
        376     -4.5172744E-04
        377     -3.5511464E-04
        378     -6.2417106E-04
        379     -2.2360965E-04
        380     -4.1556107E-04
        381     -6.5341069E-05
        382     -5.5179370E-04
        383     -1.6338082E-04
        384      4.2479519E-05
        385     -3.8199746E-04
        386     -1.5516807E-04
        392     -4.0084683E-04
        393     -5.0618290E-04
        394     -4.0134487E-04
        879      5.0112587E-04
        880      7.9015195E-04
        881      8.5057113E-04
        882      7.0607533E-04
        883      6.9296671E-04
        884     -2.8697547E-03
        885     -2.7966990E-03
        886     -3.0057194E-03
        887     -2.8172363E-03
        888     -2.7447931E-03
        889     -7.7973329E-04
        890     -6.6719563E-04
        891     -7.2017489E-04
        892     -5.6069919E-04
        893     -5.5346498E-04
        894     -8.9474367E-04
        895     -8.4899001E-04
        896     -7.3537116E-04
        897     -1.0954706E-03
        898     -7.6361835E-04
        899     -2.1853665E-04
        900     -6.4002258E-04
        901     -5.9070758E-04
        902     -3.5971988E-04
        903     -5.4165992E-04
        904     -6.3547074E-04
        905     -5.2338159E-04
        906     -5.8154154E-04
        907     -6.5067778E-04
        908     -6.2546709E-04
        909     -5.7338682E-04
        910     -5.7697087E-04
        911     -5.7679596E-04
        912     -5.5802167E-04
        913     -5.6100302E-04
        914     -4.6300893E-04
        915     -4.8183715E-04
        916     -4.8608993E-04
        917     -4.9443215E-04
        918     -4.6603237E-04
        919     -4.8613487E-04
        920     -5.1426180E-04
        921     -4.3338049E-04
        922     -5.1665601E-04
        923     -5.1403987E-04
        924     -5.1901590E-04
        925     -4.8587326E-04
        926     -5.7332659E-04
        927     -4.6939456E-04
        928     -5.1868757E-04
        929     -4.7314174E-04
        930     -4.4438295E-04
        931     -5.6527877E-04
        932     -4.8489929E-04
        933     -4.9355471E-04
        934     -4.4318974E-04
        935     -4.8076609E-04
        936     -3.3394917E-04
        937     -4.5831634E-04
        938     -3.1680174E-04
        939     -4.6148529E-04
        940     -4.4704874E-04
        941     -4.7463452E-04
        942     -4.5106565E-04
        943     -4.4009263E-04
        944     -3.8166659E-04
        945     -4.9668066E-04
        946     -5.2390203E-04
        947     -4.8430110E-04
        948     -4.4258215E-04
        949     -4.6606195E-04
        950     -4.7472346E-04
        951     -2.9073205E-04
        952     -4.6296889E-04
        953     -4.7552901E-04
        954     -5.2049700E-04
        955     -5.0177561E-04
        956     -5.4089967E-04
        957     -5.4077908E-04
        958     -5.1128782E-04
        959     -5.1086320E-04
        960     -5.2285742E-04
        961     -6.3618654E-04
        962     -4.7452755E-04
        963     -5.3420849E-04
        964     -5.3726854E-04
        965     -4.9888593E-04
        966     -4.4852828E-04
        967     -4.2754676E-04
        968     -5.8633857E-04
        969     -5.4933410E-04
        970     -6.4250071E-04
        971     -5.9934514E-04
        972     -7.2197067E-04
        973     -4.5837749E-04
        974     -5.5408135E-04
        975     -5.5581543E-04
        976     -5.5963149E-04
        977     -5.8145953E-04
        978     -5.3730210E-04
        979     -7.1083474E-04
        980     -6.7918088E-04
        981     -6.4355393E-04
        982     -6.6285062E-04
        983     -7.3127158E-04
        984     -6.9086117E-04
        985     -6.7642102E-04
        986     -8.0635597E-04
        987     -7.4981838E-04
        988     -6.5000841E-04
        989     -8.2626588E-04
        990     -7.3537584E-04
        991     -6.7529117E-04
        992     -6.8615600E-04
        993     -7.5021921E-04
        994     -7.1304009E-04
        995     -8.5396118E-04
        996     -8.0742513E-04
        997     -8.4753349E-04
        998     -8.0043221E-04
        999     -8.5020648E-04
       1000     -9.3502585E-04
       1001     -7.5398134E-04
       1002     -1.0129296E-03
       1003     -9.7097125E-04
       1004     -8.1983356E-04
       1005     -8.7691808E-04
       1006     -1.1100418E-03
       1007     -9.2575703E-04
       1008     -9.3180668E-04
       1009     -1.0814512E-03
       1010     -9.8780882E-04
       1011     -8.1970977E-04
       1012     -9.8805319E-04
       1013     -1.0256154E-03
       1014     -9.8940948E-04
       1015     -1.0334285E-03
       1016     -1.0634384E-03
       1017     -1.0057312E-03
       1018     -1.1258872E-03
       1019     -1.1113249E-03
       1020     -1.1222462E-03
       1021     -1.2162718E-03
       1022     -9.6155948E-04
       1023     -1.0250128E-03
       1024     -1.1416906E-03
       1025     -1.1256371E-03
       1026     -1.3295607E-03
       1027     -1.2987191E-03
       1028     -1.1938360E-03
       1029     -1.1942326E-03
       1030     -1.1634244E-03
       1031     -1.0124286E-03
       1032     -1.1604293E-03
       1033     -1.1001023E-03
       1034     -1.1743309E-03
       1035     -1.1930565E-03
       1036     -1.0283284E-03
       1037     -1.2822035E-03
       1038     -1.2440782E-03
       1039     -1.2947954E-03
       1040     -1.2599078E-03
       1041     -1.4309479E-03
       1042     -1.1745221E-03
       1043     -1.2744478E-03
       1044     -1.2492445E-03
       1045     -1.2993849E-03
       1046     -1.1291352E-03
       1047     -1.2752346E-03
       1048     -1.2235244E-03
       1049     -1.2574535E-03
       1050     -1.2493043E-03
       1051     -1.6817668E-03
       1052     -1.3569042E-03
       1053     -1.3363675E-03
       1054     -1.2891227E-03
       1055     -1.2629349E-03
       1056     -1.0695959E-03
       1057     -1.2816259E-03
       1058     -1.3406816E-03
       1059     -1.3276119E-03
       1060     -1.3905396E-03
       1061     -1.3224165E-03
       1062     -1.2889804E-03
       1063     -1.3784668E-03
       1064     -1.3673125E-03
       1065     -1.3649338E-03
       1066     -1.3219504E-03
       1067     -1.3295268E-03
       1068     -1.3694316E-03
       1069     -1.1876804E-03
       1070     -1.0721934E-03
       1071     -1.2127956E-03
       1072     -1.1550352E-03
       1073     -1.0921898E-03
       1074     -1.2328400E-03
       1075     -1.4923437E-03
       1076     -1.5573828E-03
       1077     -1.3473449E-03
       1078     -1.2461151E-03
       1079     -1.2913673E-03
       1080     -1.2170257E-03
       1081     -1.1027119E-03
       1082     -1.3079874E-03
       1083     -1.3060118E-03
       1084     -1.1839311E-03
       1085     -1.0276976E-03
       1086     -1.1732981E-03
       1087     -1.1155566E-03
       1088     -1.2707681E-03
       1089     -1.2061055E-03
       1090     -1.2087236E-03
       1091     -9.3781269E-04
       1092     -9.9407980E-04
       1093     -1.1713585E-03
       1094     -9.7745526E-04
       1095     -1.0265760E-03
       1096     -1.1369064E-03
       1097     -1.2097573E-03
       1098     -9.1780247E-04
       1099     -1.1686358E-03
       1100     -1.0571537E-03
       1101     -1.1488460E-03
       1102     -1.0688330E-03
       1103     -1.0723123E-03
       1104     -1.0108197E-03
       1105     -1.0361660E-03
       1106     -9.1138381E-04
       1107     -8.4580115E-04
       1108     -1.0059709E-03
       1109     -7.7198402E-04
       1110     -8.5963502E-04
       1111     -7.7508445E-04
       1112     -1.1206811E-03
       1113     -9.2733726E-04
       1114     -7.2222131E-04
       1115     -6.8750175E-04
       1116     -7.5368301E-04
       1117     -8.0330645E-04
       1118     -8.0633783E-04
       1119     -9.0703014E-04
       1120     -8.6815144E-04
       1121     -9.4802622E-04
       1122     -8.6440503E-04
       1123     -8.7395292E-04
       1124     -7.0696478E-04
       1125     -8.0034300E-04
       1126     -6.4962096E-04
       1127     -6.7884475E-04
       1128     -6.2220036E-04
       1129     -7.1442335E-04
       1130     -6.4476152E-04
       1131     -6.3772317E-04
       1132     -7.2572454E-04
       1133     -7.2211353E-04
       1134     -5.9071785E-04
       1135     -6.4996164E-04
       1136     -7.1336453E-04
       1137     -6.7647692E-04
       1138     -6.8149617E-04
       1139     -6.4623879E-04
       1140     -6.2350405E-04
       1141     -7.2473181E-04
       1142     -5.5065008E-04
       1143     -5.8505005E-04
       1144     -5.2752359E-04
       1145     -5.8729771E-04
       1146     -4.0511289E-04
       1147     -6.0421666E-04
       1148     -5.2845552E-04
       1149     -5.5881771E-04
       1150     -5.1426796E-04
       1151     -6.6078560E-04
       1152     -5.4422721E-04
       1153     -5.6522173E-04
       1154     -4.6607095E-04
       1155     -5.4141539E-04
       1156     -5.5261970E-04
       1157     -5.1209413E-04
       1158     -4.8842514E-04
       1159     -5.1365208E-04
       1160     -4.9416941E-04
       1161     -3.1985436E-04
       1162     -5.1742606E-04
       1163     -5.0927636E-04
       1164     -4.9017698E-04
       1165     -4.7812254E-04
       1166     -5.4783203E-04
       1167     -3.9103675E-04
       1168     -5.2035213E-04
       1169     -4.7641094E-04
       1170     -4.9693620E-04
       1171     -4.2679204E-04
       1172     -5.7353632E-04
       1173     -3.6140698E-04
       1174     -4.4641889E-04
       1175     -5.0583238E-04
       1176     -5.7027460E-04
       1177     -4.8510382E-04
       1178     -5.0441908E-04
       1179     -5.0534965E-04
       1180     -4.9207568E-04
       1181     -5.0959700E-04
       1182     -5.2850018E-04
       1183     -4.9606807E-04
       1184     -5.5061138E-04
       1185     -4.9332719E-04
       1186     -5.7117994E-04
       1187     -4.8982950E-04
       1188     -4.8584612E-04
       1189     -4.6526534E-04
       1190     -5.2882637E-04
       1191     -4.1322728E-04
       1192     -4.0858513E-04
       1193     -5.3971682E-04
       1194     -5.6052583E-04
       1195     -6.1148859E-04
       1196     -7.2276088E-04
       1197     -6.8634063E-04
       1198     -5.2000709E-04
       1199     -6.1912174E-04
       1200     -5.1609730E-04
       1201     -3.2242766E-04
       1202     -5.7339518E-04
       1203     -5.3098858E-04
       1204     -6.2962526E-04
       1205     -6.3192591E-04
       1206     -7.3071170E-04
       1207     -6.7241007E-04
       1208     -6.7766802E-04
       1209     -6.1190242E-04
       1210     -6.7092621E-04
       1211     -6.7070232E-04
       1212     -6.3657396E-04
       1213     -6.7452601E-04
       1214     -6.8933375E-04
       1215     -7.0276146E-04
       1216     -6.2981718E-04
       1217     -5.4914204E-04
       1218     -6.9353173E-04
       1219     -7.6882507E-04
       1220     -7.5587477E-04
       1221     -7.9208076E-04
       1222     -8.9230668E-04
       1223     -7.6017179E-04
       1224     -7.4804144E-04
       1225     -7.2018001E-04
       1226     -8.1794396E-04
       1227     -7.9140732E-04
       1228     -5.8645806E-04
       1229     -9.5414697E-04
       1230     -8.5826950E-04
       1231     -7.5529198E-04
       1232     -9.8841464E-04
       1233     -9.0582814E-04
       1234     -7.9436966E-04
       1235     -8.7767732E-04
       1236     -1.1084413E-03
       1237     -9.1213403E-04
       1238     -8.8883000E-04
       1239     -1.0438135E-03
       1240     -1.0064853E-03
       1241     -9.6392212E-04
       1242     -9.5615496E-04
       1243     -1.0993445E-03
       1244     -9.6463390E-04
       1245     -1.0018723E-03
       1246     -1.0593628E-03
       1247     -1.0252191E-03
       1248     -7.9966691E-04
       1249     -1.0656962E-03
       1250     -1.0752817E-03
       1251     -1.2195617E-03
       1252     -1.0798007E-03
       1253     -1.1471237E-03
       1254     -1.1164981E-03
       1255     -1.1550017E-03
       1256     -9.5539484E-04
       1257     -1.0783012E-03
       1258     -1.1640952E-03
       1259     -1.1540394E-03
       1260     -1.0888960E-03
       1261     -1.3168320E-03
       1262     -1.1622885E-03
       1263     -1.1621613E-03
       1264     -1.1758634E-03
       1265     -1.1779042E-03
       1266     -8.0128475E-04
       1267     -1.1375406E-03
       1268     -1.2039240E-03
       1269     -1.2165102E-03
       1270     -1.2218045E-03
       1271     -1.3809869E-03
       1272     -1.1599825E-03
       1273     -1.1314045E-03
       1274     -1.1719502E-03
       1275     -1.1126566E-03
       1276     -1.1918270E-03
       1277     -1.2309438E-03
       1278     -1.1596675E-03
       1279     -1.1870075E-03
       1280     -1.3437712E-03
       1281     -1.2353287E-03
       1282     -1.1883430E-03
       1283     -1.2583770E-03
       1284     -1.1590145E-03
       1285     -1.2373073E-03
       1286     -1.2496316E-03
       1287     -1.1196534E-03
       1288     -1.1672782E-03
       1289     -1.2828018E-03
       1290     -9.6929877E-04
       1291     -9.8678735E-04
       1292     -1.0660988E-03
       1293     -1.0932965E-03
       1294     -1.0716384E-03
       1295     -1.0976497E-03
       1296     -1.1222069E-03
       1297     -1.1049174E-03
       1298     -1.2610923E-03
       1299     -7.0843948E-04
       1300     -9.7386307E-04
       1301     -1.0877262E-03
       1302     -1.2173192E-03
       1303     -8.3761047E-04
       1304     -1.0557883E-03
       1305     -1.0587783E-03
       1306     -8.2012201E-04
       1307     -5.4020030E-04
       1308     -9.6406565E-04
       1309     -1.0307958E-03
       1310     -6.8810615E-04
       1311     -1.1618893E-03
       1312     -1.4112037E-03
       1313     -8.6530044E-04
       1314     -5.2206131E-04
       1315     -7.3543498E-04
       1316     -8.4864463E-04
       1317     -7.9232119E-04
       1318     -9.0801505E-04
       1319     -1.0316569E-03
       1320     -9.3278879E-04
       1321     -5.5580242E-04
       1322     -1.5012754E-04
       1323     -3.0834717E-04
       1324     -7.0889889E-04
       1325     -5.8494580E-04
       1326     -4.8357228E-04
       1327     -7.5852723E-04
       1328     -5.4598660E-04
       1329      3.7086168E-04
       1330      1.5574991E-04
       1331     -3.7700167E-05
       1332     -7.6470825E-05
       1333     -4.6644051E-04
       1334     -4.4905880E-04
       1335     -5.0381033E-04
       1336     -5.4414723E-04
       1337     -4.5448347E-04
       1338     -2.9458245E-04
       1339     -5.9818112E-04
       1340     -5.9005779E-04
       1341     -4.5280142E-04
       1342     -5.9925256E-04
       1343     -5.0851925E-04
       1344     -3.8059659E-04
       1345     -4.0157491E-04
       1346     -4.3254158E-04
       1347     -4.2654572E-04
       1348     -4.6931070E-04
       1374     -8.3287668E-04
       1375     -7.9400511E-04
       1376     -8.9902378E-04
       1377     -7.8507167E-04
       1378     -8.4508191E-04
       1379     -8.4296638E-04
       1380     -7.4662877E-04
       1381     -1.0437244E-03
       1382     -9.5688190E-04
       1383     -9.3035007E-04
       1384     -9.0827825E-04
       1385     -7.9031249E-04
       1386     -7.7372481E-04
       1387     -8.6661565E-04
       1388     -8.3905745E-04

 MAXIMUM         8.5057E-04
 AT NODE               881

 MINIMUM        -3.0057E-03
 AT NODE               886


          THE ANALYSIS HAS BEEN COMPLETED



                              ANALYSIS COMPLETE
                              WITH      2 WARNING MESSAGES ON THE DAT FILE



     JOB TIME SUMMARY
       USER TIME (SEC)      =   5.3000    
       SYSTEM TIME (SEC)    =   1.4000    
       TOTAL CPU TIME (SEC) =   6.7000    
       WALLCLOCK TIME (SEC) =          3
