*Heading
** Job name: sq-7mm_sin-per-10_sin-amp-1.1mm Model name: Model-1
** Generated by: Abaqus/CAE 2021
*Preprint, echo=NO, model=NO, history=NO, contact=NO
**
** PARTS
**
*Part, name=Part-1
*End Part
**
**
** ASSEMBLY
**
*Assembly, name=Assembly
**
*Instance, name=Part-1-1, part=Part-1
*Node
1, -20, 3.5, 0
2, -19.619, 2.8803, 0
3, -19.2381, 2.476, 0
4, -18.8571, 2.4276, 0
5, -18.4762, 2.7518, 0
6, -18.0952, 3.3361, 0
7, -17.7143, 3.9773, 0
8, -17.3333, 4.4526, 0
9, -16.9524, 4.5969, 0
10, -16.5714, 4.36, 0
11, -16.1905, 3.8242, 0
12, -15.8095, 3.1758, 0
13, -15.4286, 2.64, 0
14, -15.0476, 2.4031, 0
15, -14.6667, 2.5474, 0
16, -14.2857, 3.0227, 0
17, -13.9048, 3.6639, 0
18, -13.5238, 4.2482, 0
19, -13.1429, 4.5724, 0
20, -12.7619, 4.524, 0
** ... 17138 like lines cut
*Element, type=C3D10H
1, 2492, 2211, 1775, 2228, 2663, 2661, 2662, 2664, 2665, 2666
2, 2492, 1775, 2245, 2228, 2662, 2667, 2668, 2664, 2666, 2669
3, 2595, 2492, 2228, 2211, 2671, 2664, 2670, 2672, 2663, 2665
4, 2595, 2211, 2259, 2492, 2672, 2673, 2674, 2671, 2663, 2675
5, 1931, 2579, 2584, 2588, 2678, 2676, 2677, 2679, 2680, 2681
6, 1873, 2189, 2208, 2207, 2684, 2682, 2683, 2685, 2686, 2687
7, 1873, 2207, 2190, 2189, 2685, 2688, 2689, 2684, 2686, 2690
8, 1880, 2585, 2204, 2203, 2693, 2691, 2692, 2694, 2695, 2696
9, 2633, 2374, 2357, 2637, 2699, 2697, 2698, 2700, 2701, 2702
10, 2633, 2344, 2632, 2637, 2705, 2703, 2704, 2700, 2706, 2707
11, 2633, 2637, 2632, 2646, 2700, 2707, 2704, 2708, 2709, 2710
12, 170, 1294, 1591, 171, 2713, 2711, 2712, 2714, 2715, 2716
13, 2485, 297, 1730, 424, 2719, 2717, 2718, 2720, 2721, 2722
14, 2485, 1693, 292, 820, 2725, 2723, 2724, 2726, 2727, 2728
15, 2485, 1730, 292, 1693, 2718, 2729, 2724, 2725, 2730, 2723
16, 2485, 2112, 820, 825, 2732, 2731, 2726, 2733, 2734, 2735
17, 2485, 820, 2112, 2086, 2726, 2731, 2732, 2736, 2737, 2738
18, 2485, 2086, 1693, 820, 2736, 2739, 2725, 2726, 2737, 2727
19, 2485, 1690, 1730, 1693, 2741, 2740, 2718, 2725, 2742, 2730
20, 2485, 2086, 1690, 1693, 2736, 2743, 2741, 2725, 2739, 2742
** ... 9982 like lines cut
*Nset, nset=Set-1, generate
1, 17158, 1
*Elset, elset=Set-1, generate
1, 10002, 1
** Section: Section-1
*Solid Section, elset=Set-1, controls=EC-1, material=Material-1
,
*End Instance
**
*Nset, nset=bc-set-1, instance=Part-1-1
1, 2, 3, 4, 5, 6, 7, 8, 9, 10, 11, 12, 13, 14, 15, 16
17, 18, 19, 20, 21, 22, 23, 24, 25, 26, 27, 28, 29, 30, 31, 32
33, 34, 35, 36, 37, 38, 39, 40, 41, 42, 43, 44, 45, 46, 47, 48
49, 50, 51, 52, 53, 54, 55, 56, 57, 58, 59, 60, 61, 62, 63, 64
65, 66, 67, 68, 69, 70, 71, 72, 73, 74, 75, 76, 77, 78, 79, 80
81, 82, 83, 84, 85, 86, 87, 88, 89, 90, 91, 92, 93, 94, 95, 96
97, 98, 99, 100, 101, 102, 205, 206, 207, 208, 217, 218, 219, 220, 221, 222
223, 224, 225, 226, 227, 228, 229, 230, 231, 232, 233, 234, 235, 236, 237, 238
239, 240, 241, 242, 243, 244, 245, 246, 247, 248, 249, 250, 251, 252, 253, 254
255, 256, 257, 258, 259, 260, 261, 262, 263, 264, 265, 266, 267, 268, 269, 270
271, 272, 273, 274, 275, 276, 277, 278, 279, 280, 281, 282, 283, 284, 285, 286
287, 288, 289, 290, 291, 292, 293, 294, 295, 296, 297, 298, 299, 300, 301, 302
303, 304, 305, 306, 307, 308, 309, 310, 311, 312, 313, 314, 315, 316, 317, 318
421, 422, 423, 424, 445, 446, 447, 448, 449, 450, 451, 452, 453, 454, 455, 456
457, 458, 459, 460, 461, 462, 463, 464, 465, 466, 467, 468, 469, 470, 471, 472
473, 474, 475, 476, 477, 478, 479, 480, 481, 482, 483, 484, 485, 486, 487, 488
489, 490, 491, 492, 493, 494, 495, 496, 497, 498, 499, 500, 501, 502, 503, 504
505, 506, 507, 508, 509, 510, 511, 512, 513, 514, 515, 516, 517, 518, 519, 520
521, 522, 523, 524, 525, 526, 527, 528, 529, 530, 531, 532, 533, 534, 535, 536
537, 538, 539, 540, 541, 542, 543, 544, 545, 546, 547, 548, 549, 550, 551, 552
** ... 132 like lines cut
*Elset, elset=bc-set-1, instance=Part-1-1
13, 14, 15, 16, 17, 18, 30, 31, 34, 35, 36, 48, 64, 65, 76, 77
81, 82, 83, 88, 91, 96, 106, 107, 108, 109, 123, 125, 131, 132, 133, 135
149, 155, 156, 157, 158, 159, 171, 174, 175, 187, 189, 192, 194, 198, 199, 200
201, 206, 207, 208, 217, 221, 222, 223, 224, 225, 229, 236, 240, 241, 242, 244
245, 247, 254, 268, 272, 281, 283, 284, 292, 293, 294, 301, 303, 305, 318, 319
325, 327, 331, 332, 334, 335, 336, 340, 349, 350, 351, 369, 374, 381, 392, 393
396, 398, 403, 404, 406, 414, 422, 437, 438, 439, 443, 444, 450, 452, 456, 459
460, 462, 465, 480, 486, 487, 488, 498, 505, 507, 508, 513, 524, 525, 527, 530
532, 534, 538, 544, 552, 557, 560, 563, 567, 568, 571, 574, 582, 599, 602, 603
608, 611, 619, 622, 626, 630, 640, 641, 642, 643, 644, 645, 646, 659, 660, 670
674, 675, 679, 685, 686, 697, 711, 713, 722, 738, 740, 746, 751, 763, 767, 771
783, 811, 812, 813, 815, 818, 822, 824, 827, 828, 829, 830, 833, 834, 836, 837
838, 839, 848, 851, 855, 859, 860, 861, 862, 863, 864, 865, 866, 867, 870, 872
874, 876, 878, 881, 882, 884, 890, 893, 894, 903, 907, 911, 913, 918, 920, 925
934, 942, 948, 951, 952, 953, 954, 955, 956, 957, 960, 972, 981, 984, 987, 989
990, 991, 992, 994, 997, 999, 1008, 1015, 1018, 1020, 1023, 1025, 1030, 1031, 1046, 1048
1051, 1053, 1054, 1059, 1068, 1071, 1072, 1073, 1075, 1076, 1077, 1082, 1083, 1084, 1085, 1086
1088, 1090, 1091, 1095, 1100, 1101, 1102, 1105, 1107, 1108, 1109, 1110, 1111, 1112, 1113, 1114
1122, 1127, 1130, 1133, 1136, 1137, 1138, 1142, 1144, 1147, 1155, 1156, 1158, 1161, 1162, 1164
1166, 1167, 1168, 1172, 1174, 1175, 1178, 1181, 1182, 1185, 1188, 1192, 1193, 1196, 1201, 1202
** ... 162 like lines cut
*Nset, nset=bc-set-2, instance=Part-1-1
103, 104, 105, 106, 107, 108, 109, 110, 111, 112, 113, 114, 115, 116, 117, 118
119, 120, 121, 122, 123, 124, 125, 126, 127, 128, 129, 130, 131, 132, 133, 134
135, 136, 137, 138, 139, 140, 141, 142, 143, 144, 145, 146, 147, 148, 149, 150
151, 152, 153, 154, 155, 156, 157, 158, 159, 160, 161, 162, 163, 164, 165, 166
167, 168, 169, 170, 171, 172, 173, 174, 175, 176, 177, 178, 179, 180, 181, 182
183, 184, 185, 186, 187, 188, 189, 190, 191, 192, 193, 194, 195, 196, 197, 198
199, 200, 201, 202, 203, 204, 211, 212, 213, 214, 319, 320, 321, 322, 323, 324
325, 326, 327, 328, 329, 330, 331, 332, 333, 334, 335, 336, 337, 338, 339, 340
341, 342, 343, 344, 345, 346, 347, 348, 349, 350, 351, 352, 353, 354, 355, 356
357, 358, 359, 360, 361, 362, 363, 364, 365, 366, 367, 368, 369, 370, 371, 372
373, 374, 375, 376, 377, 378, 379, 380, 381, 382, 383, 384, 385, 386, 387, 388
389, 390, 391, 392, 393, 394, 395, 396, 397, 398, 399, 400, 401, 402, 403, 404
405, 406, 407, 408, 409, 410, 411, 412, 413, 414, 415, 416, 417, 418, 419, 420
427, 428, 429, 430, 955, 956, 957, 958, 959, 960, 961, 962, 963, 964, 965, 966
967, 968, 969, 970, 971, 972, 973, 974, 975, 976, 977, 978, 979, 980, 981, 982
983, 984, 985, 986, 987, 988, 989, 990, 991, 992, 993, 994, 995, 996, 997, 998
999, 1000, 1001, 1002, 1003, 1004, 1005, 1006, 1007, 1008, 1009, 1010, 1011, 1012, 1013, 1014
1015, 1016, 1017, 1018, 1019, 1020, 1021, 1022, 1023, 1024, 1025, 1026, 1027, 1028, 1029, 1030
1031, 1032, 1033, 1034, 1035, 1036, 1037, 1038, 1039, 1040, 1041, 1042, 1043, 1044, 1045, 1046
1047, 1048, 1049, 1050, 1051, 1052, 1053, 1054, 1055, 1056, 1057, 1058, 1059, 1060, 1061, 1062
** ... 132 like lines cut
*Elset, elset=bc-set-2, instance=Part-1-1
12, 24, 37, 38, 39, 40, 41, 42, 43, 46, 47, 49, 50, 51, 55, 61
63, 68, 73, 78, 84, 85, 86, 92, 93, 94, 95, 99, 103, 104, 105, 110
115, 116, 117, 118, 121, 122, 127, 129, 134, 143, 145, 146, 150, 151, 152, 153
164, 165, 167, 168, 173, 177, 185, 186, 188, 190, 191, 195, 204, 205, 210, 211
212, 213, 214, 215, 219, 231, 232, 237, 239, 251, 252, 253, 255, 263, 265, 267
269, 271, 273, 277, 282, 285, 291, 297, 310, 312, 313, 326, 329, 330, 341, 342
344, 345, 346, 355, 356, 357, 370, 372, 373, 376, 377, 378, 380, 383, 388, 394
395, 400, 402, 415, 416, 417, 426, 427, 428, 441, 442, 448, 451, 453, 455, 457
458, 467, 471, 492, 497, 500, 502, 503, 511, 514, 518, 519, 520, 521, 522, 533
535, 537, 539, 540, 551, 553, 554, 558, 559, 561, 562, 565, 569, 570, 572, 573
575, 576, 577, 579, 585, 594, 597, 600, 613, 615, 617, 620, 623, 624, 629, 634
650, 651, 652, 653, 654, 656, 657, 661, 662, 663, 664, 665, 666, 667, 668, 669
672, 676, 680, 682, 684, 690, 696, 699, 700, 707, 709, 710, 714, 716, 717, 718
721, 729, 737, 744, 752, 753, 761, 773, 785, 787, 796, 797, 801, 802, 803, 808
810, 814, 820, 823, 825, 826, 831, 832, 841, 849, 852, 853, 854, 857, 873, 875
877, 880, 883, 887, 891, 892, 896, 897, 912, 915, 926, 928, 930, 932, 933, 949
958, 959, 961, 964, 965, 966, 968, 971, 973, 975, 979, 983, 988, 995, 998, 1002
1003, 1004, 1005, 1006, 1013, 1016, 1029, 1036, 1037, 1041, 1043, 1047, 1049, 1057, 1061, 1062
1063, 1064, 1065, 1070, 1078, 1080, 1087, 1092, 1096, 1098, 1103, 1106, 1115, 1117, 1118, 1119
1120, 1126, 1128, 1129, 1131, 1134, 1140, 1141, 1143, 1145, 1146, 1153, 1154, 1157, 1163, 1170
** ... 162 like lines cut
*End Assembly
**
** ELEMENT CONTROLS
**
*Section Controls, name=EC-1, hourglass=ENHANCED
1., 1., 1.
**
** MATERIALS
**
*Material, name=Material-1
*Hyperelastic, n=3, ogden
0.4017, 1.3, 0.00295, 5, 0.00981, -2, 0, 0
0,
** ----------------------------------------------------------------
**
** STEP: Step-1
**
*Step, name=Step-1, nlgeom=YES
*Static
1., 1., 1e-05, 1.
**
** BOUNDARY CONDITIONS
**
** Name: BC-1 Type: Displacement/Rotation
*Boundary
bc-set-1, 1, 1, 3
bc-set-1, 2, 6
** Name: BC-2 Type: Symmetry/Antisymmetry/Encastre
*Boundary
bc-set-2, ENCASTRE
**
** OUTPUT REQUESTS
**
*Restart, write, frequency=0
**
** FIELD OUTPUT: F-Output-1
**
*Output, field, variable=PRESELECT
**
** HISTORY OUTPUT: H-Output-1
**
*Output, history, variable=PRESELECT
*End Step
