*Heading
** Job name: NoHoles_7MMDisp Model name: Model-1
** Generated by: Abaqus/CAE 2021
*Preprint, echo=NO, model=NO, history=NO, contact=NO
**
** PARTS
**
*Part, name=Part-1
*End Part
**  
**
** ASSEMBLY
**
*Assembly, name=Assembly
**  
*Instance, name=Part-1-1, part=Part-1
*Node
      1,    6.3499999,   19.0499992,   25.3999996
      2,    6.3499999,   18.2880001,   25.3999996
      3,    6.3499999,   17.5259991,   25.3999996
      4,    6.3499999,   16.7639999,   25.3999996
      5,    6.3499999,   16.0020008,   25.3999996
      6,    6.3499999,   15.2399998,   25.3999996
      7,    6.3499999,   14.4779997,   25.3999996
      8,    6.3499999,   13.7159996,   25.3999996
      9,    6.3499999,   12.9540005,   25.3999996
     10,    6.3499999,   12.1920004,   25.3999996
     11,    6.3499999,   11.4300003,   25.3999996
     12,    6.3499999,   10.6680002,   25.3999996
     13,    6.3499999,   9.90600014,   25.3999996
     14,    6.3499999,   9.14400005,   25.3999996
     15,    6.3499999,   8.38199997,   25.3999996
     16,    6.3499999,   7.61999989,   25.3999996
     17,    6.3499999,    6.8579998,   25.3999996
     18,    6.3499999,   6.09600019,   25.3999996
     19,    6.3499999,   5.33400011,   25.3999996
     20,    6.3499999,   4.57200003,   25.3999996
** ... 23640 like lines cut
*Element, type=C3D8RH
    1,   677,   678,   704,   703,     1,     2,    28,    27
    2,   678,   679,   705,   704,     2,     3,    29,    28
    3,   679,   680,   706,   705,     3,     4,    30,    29
    4,   680,   681,   707,   706,     4,     5,    31,    30
    5,   681,   682,   708,   707,     5,     6,    32,    31
    6,   682,   683,   709,   708,     6,     7,    33,    32
    7,   683,   684,   710,   709,     7,     8,    34,    33
    8,   684,   685,   711,   710,     8,     9,    35,    34
    9,   685,   686,   712,   711,     9,    10,    36,    35
   10,   686,   687,   713,   712,    10,    11,    37,    36
   11,   687,   688,   714,   713,    11,    12,    38,    37
   12,   688,   689,   715,   714,    12,    13,    39,    38
   13,   689,   690,   716,   715,    13,    14,    40,    39
   14,   690,   691,   717,   716,    14,    15,    41,    40
   15,   691,   692,   718,   717,    15,    16,    42,    41
   16,   692,   693,   719,   718,    16,    17,    43,    42
   17,   693,   694,   720,   719,    17,    18,    44,    43
   18,   694,   695,   721,   720,    18,    19,    45,    44
   19,   695,   696,   722,   721,    19,    20,    46,    45
   20,   696,   697,   723,   722,    20,    21,    47,    46
** ... 21230 like lines cut
*Nset, nset=Set-1, generate
     1,  23660,      1
*Elset, elset=Set-1, generate
     1,  21250,      1
** Section: Section-1
*Solid Section, elset=Set-1, controls=EC-1, material=Ogden
,
*End Instance
**  
*Nset, nset=Set-26, instance=Part-1-1, generate
   1,  676,    1
*Elset, elset=Set-26, instance=Part-1-1, generate
   1,  625,    1
*Nset, nset=Set-27, instance=Part-1-1, generate
 22985,  23660,      1
*Elset, elset=Set-27, instance=Part-1-1, generate
 20626,  21250,      1
*End Assembly
** 
** ELEMENT CONTROLS
** 
*Section Controls, name=EC-1, hourglass=ENHANCED
1., 1., 1.
** 
** MATERIALS
** 
*Material, name=Ogden
*Hyperelastic, n=3, ogden
 0.4017,     1.3, 0.00295,      5., 0.00981,     -2.,      0.,      0.
      0.,
** ----------------------------------------------------------------
** 
** STEP: Step-1
** 
*Step, name=Step-1, nlgeom=YES
*Static
0.1, 1., 1e-05, 1.
** 
** BOUNDARY CONDITIONS
** 
** Name: BC-1 Type: Displacement/Rotation
*Boundary
Set-26, 1, 1
Set-26, 2, 2
Set-26, 3, 3, 7.
Set-26, 4, 4
Set-26, 5, 5
Set-26, 6, 6
** Name: BC-2 Type: Symmetry/Antisymmetry/Encastre
*Boundary
Set-27, ENCASTRE
** 
** OUTPUT REQUESTS
** 
*Restart, write, frequency=0
** 
** FIELD OUTPUT: F-Output-1
** 
*Output, field, variable=PRESELECT
** 
** HISTORY OUTPUT: H-Output-1
** 
*Output, history, variable=PRESELECT
*End Step
