*Heading
** Job name: sq-8mm_sin-per-2_sin-amp-2mm_tet_test Model name: Model-1
** Generated by: Abaqus/CAE 2021
*Preprint, echo=NO, model=NO, history=NO, contact=NO
**
** PARTS
**
*Part, name=Part-1
*End Part
**
**
** ASSEMBLY
**
*Assembly, name=Assembly
**
*Instance, name=Part-1-1, part=Part-1
*Node
1, -20, 4, 0
2, -19.5833, 3.7389, 0
3, -19.1667, 3.4824, 0
4, -18.75, 3.2346, 0
5, -18.3333, 3, 0
6, -17.9167, 2.7825, 0
7, -17.5, 2.5858, 0
8, -17.0833, 2.4133, 0
9, -16.6667, 2.2679, 0
10, -16.25, 2.1522, 0
11, -15.8333, 2.0681, 0
12, -15.4167, 2.0171, 0
13, -15, 2, 0
14, -14.5833, 2.0171, 0
15, -14.1667, 2.0681, 0
16, -13.75, 2.1522, 0
17, -13.3333, 2.2679, 0
18, -12.9167, 2.4133, 0
19, -12.5, 2.5858, 0
20, -12.0833, 2.7825, 0
** ... 16940 like lines cut
*Element, type=C3D10H
1, 2558, 2412, 1967, 2406, 2613, 2611, 2612, 2614, 2615, 2616
2, 1776, 2394, 2406, 2597, 2619, 2617, 2618, 2620, 2621, 2622
3, 1770, 2394, 2365, 2366, 2625, 2623, 2624, 2626, 2627, 2628
4, 1797, 2301, 2312, 2346, 2631, 2629, 2630, 2632, 2633, 2634
5, 2593, 2608, 2405, 2610, 2637, 2635, 2636, 2638, 2639, 2640
6, 2593, 2547, 2370, 2610, 2643, 2641, 2642, 2638, 2644, 2645
7, 2593, 2365, 2370, 2547, 2647, 2646, 2642, 2643, 2648, 2641
8, 1766, 2588, 2320, 2365, 2651, 2649, 2650, 2652, 2653, 2654
9, 1766, 2545, 2320, 2588, 2656, 2655, 2650, 2651, 2657, 2649
10, 1776, 2588, 2394, 2597, 2659, 2658, 2619, 2620, 2660, 2621
11, 2552, 2406, 1955, 2558, 2663, 2661, 2662, 2664, 2614, 2665
12, 2552, 1955, 1938, 2558, 2662, 2666, 2667, 2664, 2665, 2668
13, 1797, 2312, 2301, 2585, 2630, 2629, 2631, 2669, 2670, 2671
14, 2552, 2558, 1956, 2329, 2664, 2672, 2673, 2674, 2675, 2676
15, 1119, 1488, 142, 143, 2679, 2677, 2678, 2680, 2681, 2682
16, 2552, 1938, 1956, 2558, 2667, 2683, 2673, 2664, 2668, 2672
17, 2552, 2558, 2329, 2406, 2664, 2675, 2674, 2663, 2614, 2684
18, 1797, 2539, 2311, 2541, 2687, 2685, 2686, 2688, 2689, 2690
19, 1797, 2311, 2317, 2541, 2686, 2691, 2692, 2688, 2690, 2693
20, 1797, 2586, 2585, 1765, 2695, 2694, 2669, 2696, 2697, 2698
** ... 9986 like lines cut
*Nset, nset=Set-1, generate
1, 16960, 1
*Elset, elset=Set-1, generate
1, 10006, 1
** Section: Section-1
*Solid Section, elset=Set-1, controls=EC-1, material=Material-1
,
*End Instance
**
*Nset, nset=bc-set-1, instance=Part-1-1
1, 2, 3, 4, 5, 6, 7, 8, 9, 10, 11, 12, 13, 14, 15, 16
17, 18, 19, 20, 21, 22, 23, 24, 25, 26, 27, 28, 29, 30, 31, 32
33, 34, 35, 36, 37, 38, 39, 40, 41, 42, 43, 44, 45, 46, 47, 48
49, 50, 51, 52, 53, 54, 55, 56, 57, 58, 59, 60, 61, 62, 63, 64
65, 66, 67, 68, 69, 70, 71, 72, 73, 74, 75, 76, 77, 78, 79, 80
81, 82, 83, 84, 85, 86, 87, 88, 89, 90, 91, 92, 93, 94, 189, 190
191, 199, 200, 201, 202, 203, 204, 205, 206, 207, 208, 209, 210, 211, 212, 213
214, 215, 216, 217, 218, 219, 220, 221, 222, 223, 224, 225, 226, 227, 228, 229
230, 231, 232, 233, 234, 235, 236, 237, 238, 239, 240, 241, 242, 243, 244, 245
246, 247, 248, 249, 250, 251, 252, 253, 254, 255, 256, 257, 258, 259, 260, 261
262, 263, 264, 265, 266, 267, 268, 269, 270, 271, 272, 273, 274, 275, 276, 277
278, 279, 280, 281, 282, 283, 284, 285, 286, 287, 288, 289, 290, 291, 292, 387
388, 389, 409, 410, 411, 412, 413, 414, 415, 416, 417, 418, 419, 420, 421, 422
423, 424, 425, 426, 427, 428, 429, 430, 431, 432, 433, 434, 435, 436, 437, 438
439, 440, 441, 442, 443, 444, 445, 446, 447, 448, 449, 450, 451, 452, 453, 454
455, 456, 457, 458, 459, 460, 461, 462, 463, 464, 465, 466, 467, 468, 469, 470
471, 472, 473, 474, 475, 476, 477, 478, 479, 480, 481, 482, 483, 484, 485, 486
487, 488, 489, 490, 491, 492, 493, 494, 495, 496, 497, 498, 499, 500, 501, 502
503, 504, 505, 506, 507, 508, 509, 510, 511, 512, 513, 514, 515, 516, 517, 518
519, 520, 521, 522, 523, 524, 525, 526, 527, 528, 529, 530, 531, 532, 533, 534
** ... 137 like lines cut
*Elset, elset=bc-set-1, instance=Part-1-1
38, 46, 48, 57, 58, 59, 60, 62, 65, 68, 69, 74, 75, 76, 80, 82
83, 88, 92, 96, 101, 105, 109, 116, 117, 120, 124, 125, 128, 129, 130, 131
132, 133, 135, 136, 139, 140, 141, 142, 144, 145, 148, 149, 151, 153, 161, 168
171, 182, 183, 184, 185, 187, 188, 191, 193, 195, 196, 205, 210, 224, 242, 260
261, 262, 264, 265, 279, 283, 284, 285, 286, 287, 288, 289, 295, 296, 297, 305
313, 317, 323, 326, 328, 333, 334, 335, 336, 339, 340, 341, 342, 343, 344, 356
358, 366, 367, 370, 371, 372, 373, 378, 379, 381, 383, 384, 385, 392, 394, 396
399, 401, 402, 415, 416, 417, 418, 419, 420, 424, 434, 436, 438, 440, 443, 455
457, 459, 462, 463, 464, 465, 467, 477, 489, 496, 499, 500, 501, 502, 503, 504
506, 507, 509, 511, 512, 529, 530, 532, 533, 535, 536, 538, 543, 546, 547, 558
563, 566, 567, 571, 572, 589, 590, 592, 593, 594, 598, 599, 600, 601, 603, 604
605, 606, 609, 610, 614, 620, 621, 627, 628, 637, 638, 639, 640, 641, 644, 652
657, 662, 665, 667, 668, 669, 672, 673, 675, 678, 681, 683, 684, 685, 690, 691
692, 695, 696, 697, 698, 699, 700, 701, 702, 704, 706, 708, 717, 722, 723, 729
730, 735, 744, 745, 747, 748, 750, 751, 753, 754, 756, 757, 758, 759, 760, 763
766, 767, 768, 772, 773, 774, 779, 782, 783, 785, 798, 799, 802, 804, 805, 810
819, 820, 823, 825, 826, 827, 828, 829, 830, 831, 833, 835, 837, 842, 843, 844
845, 846, 849, 854, 859, 861, 864, 865, 866, 868, 869, 870, 872, 873, 874, 885
886, 888, 895, 898, 907, 908, 909, 910, 911, 912, 913, 914, 916, 918, 919, 922
932, 948, 952, 954, 958, 964, 965, 969, 970, 971, 972, 973, 974, 975, 977, 978
** ... 135 like lines cut
*Nset, nset=bc-set-2, instance=Part-1-1
95, 96, 97, 98, 99, 100, 101, 102, 103, 104, 105, 106, 107, 108, 109, 110
111, 112, 113, 114, 115, 116, 117, 118, 119, 120, 121, 122, 123, 124, 125, 126
127, 128, 129, 130, 131, 132, 133, 134, 135, 136, 137, 138, 139, 140, 141, 142
143, 144, 145, 146, 147, 148, 149, 150, 151, 152, 153, 154, 155, 156, 157, 158
159, 160, 161, 162, 163, 164, 165, 166, 167, 168, 169, 170, 171, 172, 173, 174
175, 176, 177, 178, 179, 180, 181, 182, 183, 184, 185, 186, 187, 188, 194, 195
196, 293, 294, 295, 296, 297, 298, 299, 300, 301, 302, 303, 304, 305, 306, 307
308, 309, 310, 311, 312, 313, 314, 315, 316, 317, 318, 319, 320, 321, 322, 323
324, 325, 326, 327, 328, 329, 330, 331, 332, 333, 334, 335, 336, 337, 338, 339
340, 341, 342, 343, 344, 345, 346, 347, 348, 349, 350, 351, 352, 353, 354, 355
356, 357, 358, 359, 360, 361, 362, 363, 364, 365, 366, 367, 368, 369, 370, 371
372, 373, 374, 375, 376, 377, 378, 379, 380, 381, 382, 383, 384, 385, 386, 392
393, 394, 879, 880, 881, 882, 883, 884, 885, 886, 887, 888, 889, 890, 891, 892
893, 894, 895, 896, 897, 898, 899, 900, 901, 902, 903, 904, 905, 906, 907, 908
909, 910, 911, 912, 913, 914, 915, 916, 917, 918, 919, 920, 921, 922, 923, 924
925, 926, 927, 928, 929, 930, 931, 932, 933, 934, 935, 936, 937, 938, 939, 940
941, 942, 943, 944, 945, 946, 947, 948, 949, 950, 951, 952, 953, 954, 955, 956
957, 958, 959, 960, 961, 962, 963, 964, 965, 966, 967, 968, 969, 970, 971, 972
973, 974, 975, 976, 977, 978, 979, 980, 981, 982, 983, 984, 985, 986, 987, 988
989, 990, 991, 992, 993, 994, 995, 996, 997, 998, 999, 1000, 1001, 1002, 1003, 1004
** ... 137 like lines cut
*Elset, elset=bc-set-2, instance=Part-1-1
15, 32, 33, 36, 37, 40, 42, 43, 44, 45, 47, 49, 53, 55, 61, 63
64, 84, 85, 86, 89, 94, 98, 100, 102, 103, 104, 111, 112, 114, 119, 121
126, 157, 160, 162, 163, 164, 166, 173, 180, 181, 190, 201, 202, 204, 208, 211
216, 217, 225, 226, 227, 228, 229, 230, 231, 232, 233, 234, 235, 236, 237, 245
246, 247, 248, 249, 252, 253, 254, 255, 256, 258, 259, 263, 266, 267, 268, 271
273, 274, 275, 276, 291, 292, 293, 294, 298, 299, 304, 307, 309, 310, 312, 318
319, 320, 322, 324, 325, 327, 329, 330, 331, 332, 350, 352, 353, 354, 355, 357
359, 360, 361, 364, 368, 369, 375, 376, 380, 382, 389, 397, 398, 400, 403, 404
405, 407, 410, 411, 412, 413, 414, 421, 422, 423, 425, 427, 429, 431, 432, 433
435, 439, 441, 442, 445, 446, 448, 454, 456, 461, 474, 475, 478, 479, 480, 481
483, 484, 486, 487, 488, 490, 491, 492, 494, 495, 497, 517, 518, 519, 521, 523
528, 542, 551, 560, 561, 570, 573, 576, 577, 578, 579, 580, 581, 582, 585, 586
587, 588, 596, 597, 612, 615, 616, 617, 619, 623, 625, 630, 632, 634, 635, 636
645, 646, 648, 649, 653, 656, 658, 659, 661, 663, 666, 670, 676, 686, 703, 707
711, 712, 714, 715, 721, 726, 733, 736, 737, 742, 746, 749, 752, 755, 765, 776
777, 780, 781, 784, 786, 787, 789, 790, 793, 795, 797, 803, 812, 816, 817, 818
821, 832, 836, 839, 840, 841, 848, 850, 852, 856, 867, 875, 876, 877, 878, 879
880, 881, 882, 883, 887, 894, 896, 904, 905, 915, 924, 925, 929, 930, 931, 933
934, 935, 937, 938, 939, 940, 941, 943, 944, 945, 947, 949, 950, 956, 957, 960
961, 962, 963, 967, 976, 981, 982, 984, 987, 988, 991, 992, 993, 994, 996, 1001
** ... 136 like lines cut
*End Assembly
**
** ELEMENT CONTROLS
**
*Section Controls, name=EC-1, hourglass=ENHANCED
1., 1., 1.
**
** MATERIALS
**
*Material, name=Material-1
*Hyperelastic, arruda-boyce
0.4, 10, 0
** ----------------------------------------------------------------
**
** STEP: Step-1
**
*Step, name=Step-1, nlgeom=YES
*Static
1., 1., 1e-05, 1.
**
** BOUNDARY CONDITIONS
**
** Name: BC-1 Type: Displacement/Rotation
*Boundary
bc-set-1, 1, 1, 3
bc-set-1, 2, 6
** Name: BC-2 Type: Symmetry/Antisymmetry/Encastre
*Boundary
bc-set-2, ENCASTRE
**
** OUTPUT REQUESTS
**
*Restart, write, frequency=0
**
** FIELD OUTPUT: F-Output-1
**
*Output, field, variable=PRESELECT
**
** HISTORY OUTPUT: H-Output-1
**
*Output, history, variable=PRESELECT
*NODE PRINT
U
*EL PRINT, position = centroidal
DG
*NODE PRINT, nset = bc-set-1
RF1
*NODE PRINT, nset = bc-set-2
RF1
*End Step