*Heading
** Job name: sq-8mm_sin-per-4_sin-amp-2mm_tet_test Model name: Model-1
** Generated by: Abaqus/CAE 2021
*Preprint, echo=NO, model=NO, history=NO, contact=NO
**
** PARTS
**
*Part, name=Part-1
*End Part
**
**
** ASSEMBLY
**
*Assembly, name=Assembly
**
*Instance, name=Part-1-1, part=Part-1
*Node
1, -20, 4, 0
2, -18.8235, 2.6526, 0
3, -17.6471, 2.0085, 0
4, -16.4706, 2.404, 0
5, -15.2941, 3.6325, 0
6, -14.1176, 5.0529, 0
7, -12.9412, 5.9237, 0
8, -11.7647, 5.7903, 0
9, -10.5882, 4.7225, 0
10, -9.4118, 3.2775, 0
11, -8.2353, 2.2097, 0
12, -7.0588, 2.0763, 0
13, -5.8824, 2.9471, 0
14, -4.7059, 4.3675, 0
15, -3.5294, 5.596, 0
16, -2.3529, 5.9915, 0
17, -1.1765, 5.3474, 0
18, 1.1765, 2.6526, 0
19, 2.3529, 2.0085, 0
20, 3.5294, 2.404, 0
** ... 15455 like lines cut
*Element, type=C3D10H
1, 1861, 1046, 351, 1047, 2289, 2287, 2288, 2290, 2291, 2292
2, 1794, 1795, 2162, 1816, 2295, 2293, 2294, 2296, 2297, 2298
3, 1859, 1860, 538, 1849, 2301, 2299, 2300, 2302, 2303, 2304
4, 2176, 1860, 1857, 1866, 2307, 2305, 2306, 2308, 2309, 2310
5, 1861, 1850, 1046, 1047, 2312, 2311, 2289, 2290, 2313, 2291
6, 2166, 1805, 1807, 1822, 2316, 2314, 2315, 2317, 2318, 2319
7, 1654, 291, 995, 1674, 2322, 2320, 2321, 2323, 2324, 2325
8, 1654, 1674, 995, 1690, 2323, 2325, 2321, 2326, 2327, 2328
9, 912, 913, 1313, 204, 2331, 2329, 2330, 2332, 2333, 2334
10, 1656, 776, 897, 835, 2337, 2335, 2336, 2338, 2339, 2340
11, 1656, 1677, 776, 1676, 2342, 2341, 2337, 2343, 2344, 2345
12, 2106, 1918, 1682, 2118, 2348, 2346, 2347, 2349, 2350, 2351
13, 1128, 1526, 1546, 1550, 2354, 2352, 2353, 2355, 2356, 2357
14, 2100, 1670, 1712, 1672, 2360, 2358, 2359, 2361, 2362, 2363
15, 1643, 1116, 1622, 1624, 2366, 2364, 2365, 2367, 2368, 2369
16, 2110, 1702, 1728, 1715, 2372, 2370, 2371, 2373, 2374, 2375
17, 2070, 1590, 1592, 2067, 2378, 2376, 2377, 2379, 2380, 2381
18, 2155, 2167, 2146, 2178, 2384, 2382, 2383, 2385, 2386, 2387
19, 1271, 2235, 1963, 2241, 2390, 2388, 2389, 2391, 2392, 2393
20, 1573, 1542, 976, 1540, 2396, 2394, 2395, 2397, 2398, 2399
** ... 9618 like lines cut
*Nset, nset=Set-1, generate
1, 15475, 1
*Elset, elset=Set-1, generate
1, 9638, 1
** Section: Section-1
*Solid Section, elset=Set-1, controls=EC-1, material=Material-1
,
*End Instance
**
*Nset, nset=RP, instance=Part-1-1, generate
     1,  15475,      1
*Elset, elset=RP, instance=Part-1-1, generate
     1,  9638,      1
*Nset, nset=bc-set-1, instance=Part-1-1
1, 2, 3, 4, 5, 6, 7, 8, 9, 10, 11, 12, 13, 14, 15, 16
17, 18, 19, 20, 21, 22, 23, 24, 25, 26, 27, 28, 29, 30, 31, 32
33, 34, 69, 75, 76, 77, 78, 79, 80, 81, 82, 83, 84, 85, 86, 87
88, 89, 90, 91, 92, 93, 94, 95, 96, 97, 98, 99, 100, 101, 102, 103
104, 105, 106, 107, 108, 143, 151, 160, 167, 176, 185, 186, 187, 188, 189, 190
191, 192, 193, 194, 195, 196, 197, 198, 199, 200, 201, 202, 203, 204, 205, 206
207, 208, 209, 210, 211, 212, 213, 214, 215, 216, 217, 218, 219, 220, 221, 222
223, 224, 225, 226, 227, 228, 229, 230, 231, 232, 233, 234, 235, 236, 237, 238
239, 240, 241, 242, 243, 244, 245, 246, 247, 248, 249, 250, 251, 252, 253, 254
255, 256, 257, 258, 259, 260, 261, 262, 263, 264, 265, 266, 267, 268, 269, 270
271, 272, 273, 274, 275, 276, 277, 278, 279, 280, 281, 282, 283, 284, 285, 286
287, 288, 289, 290, 291, 292, 293, 294, 295, 296, 297, 298, 299, 300, 301, 302
303, 304, 305, 306, 307, 308, 309, 310, 311, 312, 313, 314, 315, 316, 317, 318
319, 320, 321, 322, 323, 324, 325, 326, 327, 328, 329, 330, 331, 332, 333, 334
335, 336, 337, 338, 339, 340, 341, 342, 343, 344, 345, 346, 347, 348, 349, 350
351, 352, 353, 354, 525, 526, 527, 528, 529, 937, 938, 939, 940, 941, 942, 1005
1006, 1007, 1008, 1009, 1010, 2409, 2493, 2570, 2608, 2760, 2880, 2932, 2946, 2975, 2989, 2995
3217, 3295, 3388, 3465, 4013, 4031, 4205, 4406, 4444, 4475, 4535, 4739, 4864, 4925, 5113, 5478
5578, 5626, 5748, 5753, 5839, 6017, 6051, 6073, 6093, 6209, 6258, 6304, 6407, 6483, 6665, 6698
6763, 6807, 6921, 6928, 6996, 7079, 7115, 7293, 7313, 7336, 7348, 7443, 7522, 7552, 7700, 7711
** ... 11 like lines cut
*Nset, nset=bc-set-2, instance=Part-1-1
35, 36, 37, 38, 39, 40, 41, 42, 43, 44, 45, 46, 47, 48, 49, 50
51, 52, 53, 54, 55, 56, 57, 58, 59, 60, 61, 62, 63, 64, 65, 66
67, 68, 72, 109, 110, 111, 112, 113, 114, 115, 116, 117, 118, 119, 120, 121
122, 123, 124, 125, 126, 127, 128, 129, 130, 131, 132, 133, 134, 135, 136, 137
138, 139, 140, 141, 142, 146, 149, 158, 169, 178, 355, 356, 357, 358, 359, 360
361, 362, 363, 364, 365, 366, 367, 368, 369, 370, 371, 372, 373, 374, 375, 376
377, 378, 379, 380, 381, 382, 383, 384, 385, 386, 387, 388, 389, 390, 391, 392
393, 394, 395, 396, 397, 398, 399, 400, 401, 402, 403, 404, 405, 406, 407, 408
409, 410, 411, 412, 413, 414, 415, 416, 417, 418, 419, 420, 421, 422, 423, 424
425, 426, 427, 428, 429, 430, 431, 432, 433, 434, 435, 436, 437, 438, 439, 440
441, 442, 443, 444, 445, 446, 447, 448, 449, 450, 451, 452, 453, 454, 455, 456
457, 458, 459, 460, 461, 462, 463, 464, 465, 466, 467, 468, 469, 470, 471, 472
473, 474, 475, 476, 477, 478, 479, 480, 481, 482, 483, 484, 485, 486, 487, 488
489, 490, 491, 492, 493, 494, 495, 496, 497, 498, 499, 500, 501, 502, 503, 504
505, 506, 507, 508, 509, 510, 511, 512, 513, 514, 515, 516, 517, 518, 519, 520
521, 522, 523, 524, 540, 541, 542, 543, 544, 1085, 1086, 1087, 1088, 1089, 1090, 1153
1154, 1155, 1156, 1157, 1158, 2481, 2505, 2681, 3125, 3214, 3304, 3484, 3562, 3618, 3684, 3881
3890, 3941, 4128, 4160, 4194, 4209, 4366, 4523, 4561, 4747, 4806, 4837, 5101, 5118, 5187, 5343
5364, 5374, 5534, 5568, 5570, 5623, 5732, 5934, 5987, 6023, 6041, 6130, 6166, 6238, 6296, 6313
6374, 6377, 6456, 6498, 6688, 6697, 6878, 6885, 7136, 7210, 7272, 7332, 7515, 7563, 7587, 7603
** ... 11 like lines cut
*End Assembly
**
** ELEMENT CONTROLS
**
*Section Controls, name=EC-1, hourglass=ENHANCED
1., 1., 1.
**
** MATERIALS
**
*Material, name=Material-1
*Hyperelastic, n=3, ogden
0.4017, 1.3, 0.00295, 5, 0.00981, -2, 0, 0
0,
** ----------------------------------------------------------------
**
** STEP: Step-1
**
*Step, name=Step-1, nlgeom=YES
*Static
1., 1., 1e-05, 1.
**
** BOUNDARY CONDITIONS
**
** Name: BC-1 Type: Displacement/Rotation
*Boundary
bc-set-1, 1, 1, 3
bc-set-1, 2, 6
** Name: BC-2 Type: Symmetry/Antisymmetry/Encastre
*Boundary
bc-set-2, ENCASTRE
**
** OUTPUT REQUESTS
**
*Restart, write, frequency=0
**
** FIELD OUTPUT: F-Output-1
**
*Output, field, variable=PRESELECT
**
** HISTORY OUTPUT: H-Output-1
**
*Output, history, variable=PRESELECT
*NODE PRINT
U
*EL PRINT
DG
*End Step