*Heading
** Job name: ShearWavy_6.25MMDisp_Amp_0.6 Model name: Model-1
** Generated by: Abaqus/CAE 2021
*Preprint, echo=NO, model=NO, history=NO, contact=NO
**
** PARTS
**
*Part, name=Part-1
*End Part
**
**
** ASSEMBLY
**
*Assembly, name=Assembly
**
*Instance, name=Part-1-1, part=Part-1
*Node
1, -20, 4, 0
2, -19.6, 4.1854, 0
3, -19.2, 4.3527, 0
4, -18.8, 4.4854, 0
5, -18.4, 4.5706, 0
6, -18, 4.6, 0
7, -17.6, 4.5706, 0
8, -17.2, 4.4854, 0
9, -16.8, 4.3527, 0
10, -16.4, 4.1854, 0
11, -15.6, 3.8146, 0
12, -15.2, 3.6473, 0
13, -14.8, 3.5146, 0
14, -14.4, 3.4294, 0
15, -14, 3.4, 0
16, -13.6, 3.4294, 0
17, -13.2, 3.5146, 0
18, -12.8, 3.6473, 0
19, -12.4, 3.8146, 0
20, -11.6, 4.1854, 0
** ... 66002 like lines cut
*Element, type=C3D4
1, 207, 6392, 442, 455
2, 8270, 8256, 7531, 7535
3, 9134, 8784, 8221, 8645
4, 7468, 7452, 6206, 7470
5, 7588, 7970, 6704, 7597
6, 7863, 6524, 7537, 7519
7, 9257, 8847, 8844, 9068
8, 8661, 7520, 6524, 7510
9, 9144, 7509, 6279, 7510
10, 8630, 7353, 7350, 7798
11, 8257, 7496, 7474, 7475
12, 9310, 7749, 8127, 8570
13, 8494, 8083, 8088, 7057
14, 8494, 7057, 7033, 8083
15, 8325, 6477, 7123, 7720
16, 7130, 7158, 5679, 7198
17, 7130, 7198, 5679, 7171
18, 9244, 8073, 7032, 8083
19, 8556, 7148, 5629, 7168
20, 8531, 8493, 7133, 7731
** ... 42803 like lines cut
*Nset, nset=Set-1, generate
1, 66022, 1
*Elset, elset=Set-1, generate
1, 42823, 1
** Section: Section-1
*Solid Section, elset=Set-1, controls=EC-1, material=Material-1
,
*End Instance
**
*Nset, nset=bc-set-1, instance=Part-1-1
1, 2, 3, 4, 5, 6, 7, 8, 9, 10, 11, 12, 13, 14, 15, 16
17, 18, 19, 20, 21, 22, 23, 24, 25, 26, 27, 28, 29, 30, 31, 32
33, 34, 35, 36, 37, 38, 39, 40, 41, 42, 43, 44, 45, 46, 47, 48
49, 50, 51, 52, 53, 54, 55, 56, 57, 58, 59, 60, 61, 62, 63, 64
65, 66, 67, 68, 69, 70, 71, 72, 73, 74, 75, 76, 77, 78, 79, 80
81, 82, 83, 84, 85, 86, 87, 88, 89, 90, 91, 92, 185, 186, 187, 188
189, 190, 191, 192, 193, 207, 208, 209, 210, 211, 212, 213, 214, 215, 216, 217
218, 219, 220, 221, 222, 223, 224, 225, 226, 227, 228, 229, 230, 231, 232, 233
234, 235, 236, 237, 238, 239, 240, 241, 242, 243, 244, 245, 246, 247, 248, 249
250, 251, 252, 253, 254, 255, 256, 257, 258, 259, 260, 261, 262, 263, 264, 265
266, 267, 268, 269, 270, 271, 272, 273, 274, 275, 276, 277, 278, 279, 280, 281
282, 283, 284, 285, 286, 287, 288, 289, 290, 291, 292, 293, 294, 295, 296, 297
298, 391, 392, 393, 394, 395, 396, 397, 398, 399, 445, 446, 447, 448, 449, 450
451, 452, 453, 454, 455, 456, 457, 458, 459, 460, 461, 462, 463, 464, 465, 466
467, 468, 469, 470, 471, 472, 473, 474, 475, 476, 477, 478, 479, 480, 481, 482
483, 484, 485, 486, 487, 488, 489, 490, 491, 492, 493, 494, 495, 496, 497, 498
499, 500, 501, 502, 503, 504, 505, 506, 507, 508, 509, 510, 511, 512, 513, 514
515, 516, 517, 518, 519, 520, 521, 522, 523, 524, 525, 526, 527, 528, 529, 530
531, 532, 533, 534, 535, 536, 537, 538, 539, 540, 541, 542, 543, 544, 545, 546
547, 548, 549, 550, 551, 552, 553, 554, 555, 556, 557, 558, 559, 560, 561, 562
** ... 147 like lines cut
*Nset, nset=bc-set-2, instance=Part-1-1
93, 94, 95, 96, 97, 98, 99, 100, 101, 102, 103, 104, 105, 106, 107, 108
109, 110, 111, 112, 113, 114, 115, 116, 117, 118, 119, 120, 121, 122, 123, 124
125, 126, 127, 128, 129, 130, 131, 132, 133, 134, 135, 136, 137, 138, 139, 140
141, 142, 143, 144, 145, 146, 147, 148, 149, 150, 151, 152, 153, 154, 155, 156
157, 158, 159, 160, 161, 162, 163, 164, 165, 166, 167, 168, 169, 170, 171, 172
173, 174, 175, 176, 177, 178, 179, 180, 181, 182, 183, 184, 196, 197, 198, 199
200, 201, 202, 203, 204, 299, 300, 301, 302, 303, 304, 305, 306, 307, 308, 309
310, 311, 312, 313, 314, 315, 316, 317, 318, 319, 320, 321, 322, 323, 324, 325
326, 327, 328, 329, 330, 331, 332, 333, 334, 335, 336, 337, 338, 339, 340, 341
342, 343, 344, 345, 346, 347, 348, 349, 350, 351, 352, 353, 354, 355, 356, 357
358, 359, 360, 361, 362, 363, 364, 365, 366, 367, 368, 369, 370, 371, 372, 373
374, 375, 376, 377, 378, 379, 380, 381, 382, 383, 384, 385, 386, 387, 388, 389
390, 402, 403, 404, 405, 406, 407, 408, 409, 410, 1527, 1528, 1529, 1530, 1531, 1532
1533, 1534, 1535, 1536, 1537, 1538, 1539, 1540, 1541, 1542, 1543, 1544, 1545, 1546, 1547, 1548
1549, 1550, 1551, 1552, 1553, 1554, 1555, 1556, 1557, 1558, 1559, 1560, 1561, 1562, 1563, 1564
1565, 1566, 1567, 1568, 1569, 1570, 1571, 1572, 1573, 1574, 1575, 1576, 1577, 1578, 1579, 1580
1581, 1582, 1583, 1584, 1585, 1586, 1587, 1588, 1589, 1590, 1591, 1592, 1593, 1594, 1595, 1596
1597, 1598, 1599, 1600, 1601, 1602, 1603, 1604, 1605, 1606, 1607, 1608, 1609, 1610, 1611, 1612
1613, 1614, 1615, 1616, 1617, 1618, 1619, 1620, 1621, 1622, 1623, 1624, 1625, 1626, 1627, 1628
1629, 1630, 1631, 1632, 1633, 1634, 1635, 1636, 1637, 1638, 1639, 1640, 1641, 1642, 1643, 1644
** ... 147 like lines cut
*End Assembly
**
** ELEMENT CONTROLS
**
*Section Controls, name=EC-1, hourglass=ENHANCED
1., 1., 1.
**
** MATERIALS
**
*Material, name=Material-1
*Hyperelastic, n=3, ogden
0.4017, 1.3, 0.00295, 5, 0.00981, -2, 0, 0
0,
** ----------------------------------------------------------------
**
** STEP: Step-1
**
*Step, name=Step-1, nlgeom=YES
*Static
1., 1., 1e-05, 1.
**
** BOUNDARY CONDITIONS
**
** Name: BC-1 Type: Displacement/Rotation
*Boundary
bc-set-1, 1, 1, 6.25
bc-set-1, 2, 6
** Name: BC-2 Type: Symmetry/Antisymmetry/Encastre
*Boundary
bc-set-2, ENCASTRE
**
** OUTPUT REQUESTS
**
*Restart, write, frequency=0
**
** FIELD OUTPUT: F-Output-1
**
*Output, field, variable=PRESELECT
**
** HISTORY OUTPUT: H-Output-1
**
*Output, history, variable=PRESELECT
*End Step
