*Heading
** Job name: sq-18mm_sin-per-9_sin-amp-6.3mm Model name: Model-1
** Generated by: Abaqus/CAE 2021
*Preprint, echo=NO, model=NO, history=NO, contact=NO
**
** PARTS
**
*Part, name=Part-1
*End Part
**
**
** ASSEMBLY
**
*Assembly, name=Assembly
**
*Instance, name=Part-1-1, part=Part-1
*Node
1, -20, 9, 0
2, -19.2982, 14.2741, 0
3, -18.5965, 14.7694, 0
4, -17.8947, 10.0369, 0
5, -17.193, 4.3649, 0
6, -16.4912, 2.8928, 0
7, -15.7895, 6.9544, 0
8, -15.0877, 12.8695, 0
9, -14.386, 15.2785, 0
10, -13.6842, 11.9985, 0
11, -12.9825, 6.0015, 0
12, -12.2807, 2.7215, 0
13, -11.5789, 5.1305, 0
14, -10.8772, 11.0456, 0
15, -10.1754, 15.1072, 0
16, -9.4737, 13.6351, 0
17, -8.7719, 7.9631, 0
18, -8.0702, 3.2306, 0
19, -7.3684, 3.7259, 0
20, -5.9649, 14.2741, 0
** ... 18670 like lines cut
*Element, type=C3D10H
1, 1745, 1729, 715, 1743, 3071, 3069, 3070, 3072, 3073, 3074
2, 1893, 1868, 1870, 824, 3077, 3075, 3076, 3078, 3079, 3080
3, 838, 172, 171, 1875, 3083, 3081, 3082, 3084, 3085, 3086
4, 838, 171, 831, 1875, 3082, 3087, 3088, 3084, 3086, 3089
5, 2819, 2826, 1373, 2829, 3092, 3090, 3091, 3093, 3094, 3095
6, 2323, 2335, 2299, 2322, 3098, 3096, 3097, 3099, 3100, 3101
7, 2299, 2323, 1196, 2301, 3097, 3102, 3103, 3104, 3105, 3106
8, 2763, 2747, 2190, 2757, 3109, 3107, 3108, 3110, 3111, 3112
9, 2763, 2747, 2757, 2134, 3109, 3111, 3110, 3113, 3114, 3115
10, 1366, 1368, 3060, 2819, 3118, 3116, 3117, 3119, 3120, 3121
11, 1644, 649, 1674, 1645, 3124, 3122, 3123, 3125, 3126, 3127
12, 2797, 1314, 2538, 2540, 3130, 3128, 3129, 3131, 3132, 3133
13, 2806, 1316, 511, 2833, 3136, 3134, 3135, 3137, 3138, 3139
14, 2806, 2797, 517, 510, 3142, 3140, 3141, 3143, 3144, 3145
15, 2806, 510, 1315, 2797, 3143, 3146, 3147, 3142, 3144, 3148
16, 2396, 2395, 1613, 471, 3151, 3149, 3150, 3152, 3153, 3154
17, 2806, 2538, 1315, 2536, 3156, 3155, 3147, 3157, 3158, 3159
18, 2786, 1177, 2264, 2266, 3162, 3160, 3161, 3163, 3164, 3165
19, 2384, 1627, 1622, 1624, 3168, 3166, 3167, 3169, 3170, 3171
20, 2384, 1341, 113, 1624, 3174, 3172, 3173, 3169, 3175, 3176
** ... 9979 like lines cut
*Nset, nset=Set-1, generate
1, 18690, 1
*Elset, elset=Set-1, generate
1, 9999, 1
** Section: Section-1
*Solid Section, elset=Set-1, controls=EC-1, material=Material-1
,
*End Instance
**
*Nset, nset=bc-set-1, instance=Part-1-1
1, 2, 3, 4, 5, 6, 7, 8, 9, 10, 11, 12, 13, 14, 15, 16
17, 18, 19, 20, 21, 22, 23, 24, 25, 26, 27, 28, 29, 30, 31, 32
33, 34, 35, 36, 37, 38, 39, 40, 41, 42, 43, 44, 45, 46, 47, 48
49, 50, 51, 52, 53, 54, 55, 56, 113, 114, 121, 122, 123, 124, 125, 126
127, 128, 129, 130, 131, 132, 133, 134, 135, 136, 137, 138, 139, 140, 141, 142
143, 144, 145, 146, 147, 148, 149, 150, 151, 152, 153, 154, 155, 156, 157, 158
159, 160, 161, 162, 163, 164, 165, 166, 167, 168, 169, 170, 171, 172, 173, 174
175, 176, 233, 234, 256, 257, 265, 266, 272, 273, 278, 279, 282, 283, 296, 297
316, 317, 321, 322, 335, 336, 339, 340, 343, 344, 347, 348, 385, 386, 392, 393
405, 406, 407, 408, 414, 415, 422, 423, 428, 429, 433, 434, 441, 442, 449, 450
453, 454, 465, 466, 481, 482, 483, 484, 485, 486, 487, 488, 489, 490, 491, 492
493, 494, 495, 496, 497, 498, 499, 500, 501, 502, 503, 504, 505, 506, 507, 508
509, 510, 511, 512, 513, 514, 515, 516, 517, 518, 519, 520, 521, 522, 523, 524
525, 526, 527, 528, 529, 530, 531, 532, 533, 534, 535, 536, 537, 538, 539, 540
541, 542, 543, 544, 545, 546, 547, 548, 549, 550, 551, 552, 553, 554, 555, 556
557, 558, 559, 560, 561, 562, 563, 564, 565, 566, 567, 568, 569, 570, 571, 572
573, 574, 575, 576, 577, 578, 579, 580, 581, 582, 583, 584, 585, 586, 587, 588
589, 590, 591, 592, 593, 594, 595, 596, 597, 598, 599, 600, 601, 602, 603, 604
605, 606, 607, 608, 609, 610, 611, 612, 613, 614, 615, 616, 617, 618, 619, 620
621, 622, 623, 624, 625, 626, 627, 628, 629, 630, 631, 632, 633, 634, 635, 636
** ... 122 like lines cut
*Elset, elset=bc-set-1, instance=Part-1-1
1, 2, 3, 4, 11, 13, 14, 15, 19, 20, 21, 22, 24, 28, 32, 38
44, 48, 50, 51, 52, 53, 54, 63, 64, 65, 70, 71, 73, 76, 77, 78
79, 83, 86, 87, 88, 89, 90, 92, 93, 94, 108, 110, 111, 112, 117, 118
125, 126, 127, 128, 130, 132, 133, 153, 157, 166, 196, 197, 198, 201, 203, 212
213, 214, 222, 223, 224, 226, 227, 228, 229, 230, 231, 232, 233, 235, 236, 237
239, 242, 244, 250, 251, 254, 255, 256, 258, 259, 261, 265, 276, 277, 279, 280
281, 283, 284, 285, 286, 287, 288, 289, 291, 295, 301, 302, 303, 304, 305, 306
307, 309, 310, 311, 312, 313, 314, 315, 316, 318, 319, 322, 324, 325, 327, 328
329, 340, 355, 357, 363, 364, 374, 378, 385, 386, 387, 389, 392, 396, 397, 398
402, 404, 405, 406, 407, 408, 409, 411, 413, 414, 415, 416, 417, 421, 423, 428
430, 431, 435, 436, 439, 440, 441, 442, 443, 444, 446, 447, 451, 458, 459, 462
469, 471, 472, 473, 474, 479, 480, 483, 484, 485, 486, 487, 488, 489, 490, 491
492, 494, 495, 496, 498, 499, 500, 501, 502, 505, 508, 511, 512, 513, 515, 516
517, 519, 520, 521, 522, 523, 524, 526, 531, 532, 533, 534, 537, 539, 542, 543
545, 547, 549, 553, 554, 555, 558, 559, 562, 565, 567, 568, 569, 571, 572, 576
579, 582, 585, 586, 588, 589, 590, 593, 594, 595, 596, 601, 602, 605, 606, 608
609, 610, 611, 612, 613, 614, 615, 616, 617, 618, 619, 620, 621, 622, 623, 624
625, 626, 627, 628, 630, 631, 632, 633, 634, 635, 636, 637, 638, 640, 645, 646
647, 648, 649, 650, 651, 653, 655, 657, 658, 659, 660, 662, 663, 664, 668, 670
674, 678, 679, 680, 682, 683, 684, 685, 686, 688, 689, 690, 692, 693, 696, 697
** ... 225 like lines cut
*Nset, nset=bc-set-2, instance=Part-1-1
57, 58, 59, 60, 61, 62, 63, 64, 65, 66, 67, 68, 69, 70, 71, 72
73, 74, 75, 76, 77, 78, 79, 80, 81, 82, 83, 84, 85, 86, 87, 88
89, 90, 91, 92, 93, 94, 95, 96, 97, 98, 99, 100, 101, 102, 103, 104
105, 106, 107, 108, 109, 110, 111, 112, 117, 118, 177, 178, 179, 180, 181, 182
183, 184, 185, 186, 187, 188, 189, 190, 191, 192, 193, 194, 195, 196, 197, 198
199, 200, 201, 202, 203, 204, 205, 206, 207, 208, 209, 210, 211, 212, 213, 214
215, 216, 217, 218, 219, 220, 221, 222, 223, 224, 225, 226, 227, 228, 229, 230
231, 232, 237, 238, 263, 264, 276, 277, 286, 287, 288, 289, 292, 293, 303, 304
307, 308, 312, 313, 323, 324, 325, 326, 333, 334, 345, 346, 379, 380, 383, 384
396, 397, 398, 399, 402, 403, 417, 418, 431, 432, 444, 445, 458, 459, 460, 461
463, 464, 468, 469, 873, 874, 875, 876, 877, 878, 879, 880, 881, 882, 883, 884
885, 886, 887, 888, 889, 890, 891, 892, 893, 894, 895, 896, 897, 898, 899, 900
901, 902, 903, 904, 905, 906, 907, 908, 909, 910, 911, 912, 913, 914, 915, 916
917, 918, 919, 920, 921, 922, 923, 924, 925, 926, 927, 928, 929, 930, 931, 932
933, 934, 935, 936, 937, 938, 939, 940, 941, 942, 943, 944, 945, 946, 947, 948
949, 950, 951, 952, 953, 954, 955, 956, 957, 958, 959, 960, 961, 962, 963, 964
965, 966, 967, 968, 969, 970, 971, 972, 973, 974, 975, 976, 977, 978, 979, 980
981, 982, 983, 984, 985, 986, 987, 988, 989, 990, 991, 992, 993, 994, 995, 996
997, 998, 999, 1000, 1001, 1002, 1003, 1004, 1005, 1006, 1007, 1008, 1009, 1010, 1011, 1012
1013, 1014, 1015, 1016, 1017, 1018, 1019, 1020, 1021, 1022, 1023, 1024, 1025, 1026, 1027, 1028
** ... 121 like lines cut
*Elset, elset=bc-set-2, instance=Part-1-1
6, 7, 18, 23, 25, 27, 31, 33, 34, 35, 36, 37, 39, 41, 42, 43
45, 49, 57, 59, 60, 67, 68, 69, 80, 81, 85, 91, 95, 97, 98, 99
100, 101, 102, 103, 104, 105, 106, 107, 113, 114, 115, 119, 121, 122, 123, 124
131, 135, 137, 138, 139, 141, 142, 143, 144, 145, 150, 151, 154, 155, 156, 158
159, 160, 161, 162, 167, 168, 170, 172, 173, 174, 176, 177, 178, 179, 180, 181
182, 183, 184, 185, 188, 189, 190, 191, 192, 193, 194, 195, 200, 204, 206, 207
208, 210, 211, 218, 220, 221, 225, 234, 243, 245, 246, 247, 249, 253, 257, 264
266, 267, 268, 269, 275, 278, 290, 294, 297, 298, 299, 300, 320, 321, 323, 326
330, 331, 332, 334, 336, 337, 338, 341, 342, 343, 344, 346, 347, 348, 349, 350
352, 353, 356, 358, 359, 360, 361, 362, 365, 367, 369, 371, 372, 376, 377, 379
381, 382, 388, 390, 391, 393, 394, 395, 399, 401, 403, 410, 412, 418, 419, 420
422, 424, 426, 427, 432, 433, 434, 449, 452, 453, 454, 455, 456, 457, 460, 461
463, 467, 470, 475, 476, 477, 478, 493, 503, 507, 509, 510, 527, 535, 536, 538
540, 541, 546, 561, 564, 570, 573, 577, 578, 581, 583, 584, 587, 591, 592, 597
598, 603, 639, 641, 642, 643, 644, 652, 654, 656, 661, 665, 667, 671, 672, 675
676, 677, 681, 687, 691, 698, 700, 701, 709, 713, 715, 717, 720, 723, 724, 728
729, 730, 732, 742, 743, 744, 747, 749, 751, 753, 755, 759, 761, 762, 764, 767
768, 770, 771, 772, 775, 777, 778, 779, 780, 782, 783, 787, 788, 789, 790, 791
794, 798, 803, 804, 805, 806, 807, 811, 817, 821, 823, 826, 827, 828, 831, 832
833, 835, 836, 837, 838, 839, 841, 843, 844, 845, 847, 849, 852, 853, 854, 855
** ... 222 like lines cut
*End Assembly
**
** ELEMENT CONTROLS
**
*Section Controls, name=EC-1, hourglass=ENHANCED
1., 1., 1.
**
** MATERIALS
**
*Material, name=Material-1
*Hyperelastic, n=3, ogden
0.4017, 1.3, 0.00295, 5, 0.00981, -2, 0, 0
0,
** ----------------------------------------------------------------
**
** STEP: Step-1
**
*Step, name=Step-1, nlgeom=YES
*Static
1., 1., 1e-05, 1.
**
** BOUNDARY CONDITIONS
**
** Name: BC-1 Type: Displacement/Rotation
*Boundary
bc-set-1, 1, 1, 3
bc-set-1, 2, 6
** Name: BC-2 Type: Symmetry/Antisymmetry/Encastre
*Boundary
bc-set-2, ENCASTRE
**
** OUTPUT REQUESTS
**
*Restart, write, frequency=0
**
** FIELD OUTPUT: F-Output-1
**
*Output, field, variable=PRESELECT
**
** HISTORY OUTPUT: H-Output-1
**
*Output, history, variable=PRESELECT
*End Step
