*Heading
** Job name: sq-8mm_sin-per-4_sin-amp-3mm_tet_test Model name: Model-1
** Generated by: Abaqus/CAE 2021
*Preprint, echo=NO, model=NO, history=NO, contact=NO
**
** PARTS
**
*Part, name=Part-1
*End Part
**
**
** ASSEMBLY
**
*Assembly, name=Assembly
**
*Instance, name=Part-1-1, part=Part-1
*Node
1, -20, 4, 0
2, -19.5833, 3.2235, 0
3, -19.1667, 2.5, 0
4, -18.75, 1.8787, 0
5, -18.3333, 1.4019, 0
6, -17.9167, 1.1022, 0
7, -17.5, 1, 0
8, -17.0833, 1.1022, 0
9, -16.6667, 1.4019, 0
10, -16.25, 1.8787, 0
11, -15.8333, 2.5, 0
12, -15.4167, 3.2235, 0
13, -14.5833, 4.7765, 0
14, -14.1667, 5.5, 0
15, -13.75, 6.1213, 0
16, -13.3333, 6.5981, 0
17, -12.9167, 6.8978, 0
18, -12.5, 7, 0
19, -12.0833, 6.8978, 0
20, -11.6667, 6.5981, 0
** ... 16924 like lines cut
*Element, type=C3D10H
1, 2581, 2453, 1982, 1780, 2611, 2609, 2610, 2612, 2613, 2614
2, 2367, 2192, 754, 744, 2617, 2615, 2616, 2618, 2619, 2620
3, 750, 751, 1336, 1779, 2623, 2621, 2622, 2624, 2625, 2626
4, 2216, 774, 769, 2232, 2629, 2627, 2628, 2630, 2631, 2632
5, 2155, 1606, 1654, 1651, 2635, 2633, 2634, 2636, 2637, 2638
6, 2368, 1552, 1631, 2191, 2641, 2639, 2640, 2642, 2643, 2644
7, 2216, 2241, 774, 2232, 2646, 2645, 2629, 2630, 2647, 2631
8, 1782, 2475, 2470, 1777, 2650, 2648, 2649, 2651, 2652, 2653
9, 2062, 2042, 1058, 1057, 2656, 2654, 2655, 2657, 2658, 2659
10, 2603, 2501, 2498, 2508, 2662, 2660, 2661, 2663, 2664, 2665
11, 1901, 160, 161, 1453, 2668, 2666, 2667, 2669, 2670, 2671
12, 1905, 471, 1958, 2310, 2674, 2672, 2673, 2675, 2676, 2677
13, 2302, 157, 1188, 1193, 2680, 2678, 2679, 2681, 2682, 2683
14, 2063, 1418, 1491, 1415, 2686, 2684, 2685, 2687, 2688, 2689
15, 2332, 2043, 663, 2062, 2692, 2690, 2691, 2693, 2694, 2695
16, 1820, 1816, 2521, 1764, 2698, 2696, 2697, 2699, 2700, 2701
17, 2098, 2080, 667, 2081, 2704, 2702, 2703, 2705, 2706, 2707
18, 2603, 2608, 2523, 2507, 2710, 2708, 2709, 2711, 2712, 2713
19, 1807, 2578, 1758, 1810, 2716, 2714, 2715, 2717, 2718, 2719
20, 2187, 2397, 2515, 2514, 2722, 2720, 2721, 2723, 2724, 2725
** ... 9978 like lines cut
*Nset, nset=Set-1, generate
1, 16944, 1
*Elset, elset=Set-1, generate
1, 9998, 1
** Section: Section-1
*Solid Section, elset=Set-1, controls=EC-1, material=Material-1
,
*End Instance
**
*Nset, nset=bc-set-1, instance=Part-1-1
1, 2, 3, 4, 5, 6, 7, 8, 9, 10, 11, 12, 13, 14, 15, 16
17, 18, 19, 20, 21, 22, 23, 24, 25, 26, 27, 28, 29, 30, 31, 32
33, 34, 35, 36, 37, 38, 39, 40, 41, 42, 43, 44, 45, 46, 47, 48
49, 50, 51, 52, 53, 54, 55, 56, 57, 58, 59, 60, 61, 62, 63, 64
65, 66, 67, 68, 69, 70, 71, 72, 73, 74, 75, 76, 77, 78, 79, 80
81, 82, 83, 84, 85, 86, 87, 88, 89, 90, 181, 182, 183, 184, 185, 186
187, 199, 200, 201, 202, 203, 204, 205, 206, 207, 208, 209, 210, 211, 212, 213
214, 215, 216, 217, 218, 219, 220, 221, 222, 223, 224, 225, 226, 227, 228, 229
230, 231, 232, 233, 234, 235, 236, 237, 238, 239, 240, 241, 242, 243, 244, 245
246, 247, 248, 249, 250, 251, 252, 253, 254, 255, 256, 257, 258, 259, 260, 261
262, 263, 264, 265, 266, 267, 268, 269, 270, 271, 272, 273, 274, 275, 276, 277
278, 279, 280, 281, 282, 283, 284, 285, 286, 287, 288, 379, 380, 381, 382, 383
384, 385, 409, 410, 411, 412, 413, 414, 415, 416, 417, 418, 419, 420, 421, 422
423, 424, 425, 426, 427, 428, 429, 430, 431, 432, 433, 434, 435, 436, 437, 438
439, 440, 441, 442, 443, 444, 445, 446, 447, 448, 449, 450, 451, 452, 453, 454
455, 456, 457, 458, 459, 460, 461, 462, 463, 464, 465, 466, 467, 468, 469, 470
471, 472, 473, 474, 475, 476, 477, 478, 479, 480, 481, 482, 483, 484, 485, 486
487, 488, 489, 490, 491, 492, 493, 494, 495, 496, 497, 498, 499, 500, 501, 502
503, 504, 505, 506, 507, 508, 509, 510, 511, 512, 513, 514, 515, 516, 517, 518
519, 520, 521, 522, 523, 524, 525, 526, 527, 528, 529, 530, 531, 532, 533, 534
** ... 124 like lines cut
*Elset, elset=bc-set-1, instance=Part-1-1
2, 3, 4, 7, 12, 15, 17, 23, 27, 42, 51, 65, 66, 70, 78, 91
103, 105, 108, 110, 116, 134, 136, 137, 143, 144, 148, 149, 150, 152, 158, 166
167, 168, 169, 171, 172, 180, 209, 226, 231, 233, 235, 242, 243, 246, 250, 251
252, 253, 255, 256, 257, 258, 260, 261, 262, 266, 269, 270, 272, 280, 311, 317
326, 336, 337, 338, 339, 340, 341, 347, 350, 357, 358, 362, 364, 378, 380, 382
383, 385, 389, 390, 391, 392, 395, 398, 399, 400, 403, 404, 405, 406, 409, 410
412, 413, 418, 419, 421, 424, 433, 437, 439, 453, 459, 460, 461, 463, 464, 467
469, 471, 472, 476, 478, 482, 486, 487, 491, 495, 498, 499, 501, 502, 504, 505
523, 524, 534, 536, 537, 539, 540, 542, 543, 544, 545, 546, 552, 554, 557, 562
563, 573, 575, 578, 581, 583, 593, 595, 597, 598, 601, 606, 607, 610, 611, 615
617, 618, 619, 626, 636, 638, 639, 642, 643, 644, 646, 657, 659, 663, 664, 668
678, 681, 684, 685, 692, 694, 699, 704, 705, 708, 709, 712, 714, 718, 719, 720
726, 729, 732, 733, 736, 738, 742, 743, 745, 746, 747, 748, 749, 750, 751, 753
754, 755, 756, 759, 762, 767, 768, 769, 770, 776, 778, 779, 780, 782, 788, 801
803, 804, 807, 811, 818, 824, 828, 830, 834, 836, 837, 838, 842, 843, 844, 845
852, 854, 856, 857, 869, 870, 872, 874, 887, 894, 896, 908, 910, 911, 918, 929
930, 931, 935, 937, 938, 940, 941, 942, 944, 946, 947, 962, 964, 966, 969, 981
982, 984, 985, 986, 987, 999, 1000, 1001, 1002, 1004, 1018, 1020, 1021, 1028, 1030, 1038
1039, 1042, 1046, 1047, 1048, 1050, 1051, 1052, 1053, 1054, 1059, 1064, 1070, 1076, 1079, 1081
1085, 1086, 1087, 1088, 1089, 1090, 1091, 1093, 1094, 1095, 1096, 1097, 1099, 1101, 1107, 1108
** ... 156 like lines cut
*Nset, nset=bc-set-2, instance=Part-1-1
91, 92, 93, 94, 95, 96, 97, 98, 99, 100, 101, 102, 103, 104, 105, 106
107, 108, 109, 110, 111, 112, 113, 114, 115, 116, 117, 118, 119, 120, 121, 122
123, 124, 125, 126, 127, 128, 129, 130, 131, 132, 133, 134, 135, 136, 137, 138
139, 140, 141, 142, 143, 144, 145, 146, 147, 148, 149, 150, 151, 152, 153, 154
155, 156, 157, 158, 159, 160, 161, 162, 163, 164, 165, 166, 167, 168, 169, 170
171, 172, 173, 174, 175, 176, 177, 178, 179, 180, 190, 191, 192, 193, 194, 195
196, 289, 290, 291, 292, 293, 294, 295, 296, 297, 298, 299, 300, 301, 302, 303
304, 305, 306, 307, 308, 309, 310, 311, 312, 313, 314, 315, 316, 317, 318, 319
320, 321, 322, 323, 324, 325, 326, 327, 328, 329, 330, 331, 332, 333, 334, 335
336, 337, 338, 339, 340, 341, 342, 343, 344, 345, 346, 347, 348, 349, 350, 351
352, 353, 354, 355, 356, 357, 358, 359, 360, 361, 362, 363, 364, 365, 366, 367
368, 369, 370, 371, 372, 373, 374, 375, 376, 377, 378, 388, 389, 390, 391, 392
393, 394, 859, 860, 861, 862, 863, 864, 865, 866, 867, 868, 869, 870, 871, 872
873, 874, 875, 876, 877, 878, 879, 880, 881, 882, 883, 884, 885, 886, 887, 888
889, 890, 891, 892, 893, 894, 895, 896, 897, 898, 899, 900, 901, 902, 903, 904
905, 906, 907, 908, 909, 910, 911, 912, 913, 914, 915, 916, 917, 918, 919, 920
921, 922, 923, 924, 925, 926, 927, 928, 929, 930, 931, 932, 933, 934, 935, 936
937, 938, 939, 940, 941, 942, 943, 944, 945, 946, 947, 948, 949, 950, 951, 952
953, 954, 955, 956, 957, 958, 959, 960, 961, 962, 963, 964, 965, 966, 967, 968
969, 970, 971, 972, 973, 974, 975, 976, 977, 978, 979, 980, 981, 982, 983, 984
** ... 124 like lines cut
*Elset, elset=bc-set-2, instance=Part-1-1
9, 11, 13, 21, 22, 24, 25, 29, 32, 39, 40, 41, 43, 45, 48, 49
55, 60, 61, 62, 63, 68, 69, 83, 84, 92, 93, 94, 96, 106, 107, 114
123, 129, 135, 139, 140, 141, 142, 170, 179, 184, 206, 225, 228, 229, 234, 238
239, 241, 248, 259, 263, 265, 268, 281, 282, 289, 293, 301, 302, 304, 306, 309
320, 328, 329, 335, 343, 349, 354, 355, 359, 363, 368, 369, 370, 371, 372, 374
375, 377, 379, 384, 387, 388, 393, 397, 402, 411, 415, 416, 422, 425, 427, 428
429, 430, 436, 440, 441, 442, 444, 447, 448, 451, 452, 454, 457, 458, 468, 470
474, 477, 479, 480, 483, 484, 485, 488, 489, 492, 493, 494, 497, 500, 503, 507
508, 509, 510, 511, 513, 514, 515, 518, 520, 521, 525, 528, 530, 531, 541, 547
548, 549, 551, 553, 555, 556, 558, 559, 560, 561, 564, 566, 568, 569, 572, 574
576, 577, 580, 582, 584, 585, 586, 587, 589, 590, 591, 592, 596, 600, 603, 604
605, 608, 612, 613, 616, 620, 621, 622, 623, 625, 628, 629, 637, 645, 647, 648
652, 654, 655, 656, 660, 661, 662, 665, 666, 669, 670, 671, 672, 673, 675, 676
680, 682, 683, 686, 687, 688, 689, 691, 693, 695, 698, 701, 702, 706, 707, 711
722, 723, 724, 727, 728, 730, 734, 740, 744, 752, 760, 761, 763, 771, 772, 773
774, 775, 777, 783, 785, 787, 789, 790, 792, 793, 794, 797, 799, 800, 805, 806
808, 809, 810, 814, 817, 819, 820, 821, 822, 823, 825, 826, 827, 829, 831, 832
833, 835, 839, 847, 848, 851, 855, 858, 862, 863, 864, 865, 867, 873, 875, 876
877, 878, 881, 883, 884, 885, 886, 888, 889, 890, 891, 892, 897, 898, 900, 905
906, 907, 909, 914, 921, 922, 924, 926, 927, 928, 932, 936, 948, 949, 951, 952
** ... 155 like lines cut
*End Assembly
**
** ELEMENT CONTROLS
**
*Section Controls, name=EC-1, hourglass=ENHANCED
1., 1., 1.
**
** MATERIALS
**
*Material, name=Material-1
*Hyperelastic, neo hooke
0.001724, 60
** ----------------------------------------------------------------
**
** STEP: Step-1
**
*Step, name=Step-1, nlgeom=YES
*Static
1., 1., 1e-05, 1.
**
** BOUNDARY CONDITIONS
**
** Name: BC-1 Type: Displacement/Rotation
*Boundary
bc-set-1, 1, 1, 3
bc-set-1, 2, 6
** Name: BC-2 Type: Symmetry/Antisymmetry/Encastre
*Boundary
bc-set-2, ENCASTRE
**
** OUTPUT REQUESTS
**
*Restart, write, frequency=0
**
** FIELD OUTPUT: F-Output-1
**
*Output, field, variable=PRESELECT
**
** HISTORY OUTPUT: H-Output-1
**
*Output, history, variable=PRESELECT
*NODE PRINT
U
*EL PRINT, position = centroidal
DG
*EL PRINT, elset = bc-set-1, position = centroidal
S12
*EL PRINT, elset = bc-set-2, position = centroidal
S12
*End Step