*Heading
** Job name: sq-6mm_sin-per-9_sin-amp-1.4mm_tet_test Model name: Model-1
** Generated by: Abaqus/CAE 2021
*Preprint, echo=NO, model=NO, history=NO, contact=NO
**
** PARTS
**
*Part, name=Part-1
*End Part
**
**
** ASSEMBLY
**
*Assembly, name=Assembly
**
*Instance, name=Part-1-1, part=Part-1
*Node
1, -20, 3, 0
2, -19.6491, 3.6663, 0
3, -19.2982, 4.172, 0
4, -18.9474, 4.3952, 0
5, -18.5965, 4.2821, 0
6, -18.2456, 3.8599, 0
7, -17.8947, 3.2304, 0
8, -17.5439, 2.5454, 0
9, -17.193, 1.97, 0
10, -16.8421, 1.6428, 0
11, -16.4912, 1.6428, 0
12, -16.1404, 1.97, 0
13, -15.7895, 2.5454, 0
14, -15.4386, 3.2304, 0
15, -15.0877, 3.8599, 0
16, -14.7368, 4.2821, 0
17, -14.386, 4.3952, 0
18, -14.0351, 4.172, 0
19, -13.6842, 3.6663, 0
20, -12.9825, 2.3337, 0
** ... 18211 like lines cut
*Element, type=C3D10H
1, 2767, 2747, 2225, 2752, 2851, 2849, 2850, 2852, 2853, 2854
2, 2774, 2776, 2257, 2236, 2857, 2855, 2856, 2858, 2859, 2860
3, 1001, 2110, 2038, 2103, 2863, 2861, 2862, 2864, 2865, 2866
4, 1077, 2077, 1072, 1078, 2869, 2867, 2868, 2870, 2871, 2872
5, 2434, 1367, 2417, 2435, 2875, 2873, 2874, 2876, 2877, 2878
6, 2771, 693, 698, 2458, 2881, 2879, 2880, 2882, 2883, 2884
7, 2751, 2187, 2188, 2759, 2887, 2885, 2886, 2888, 2889, 2890
8, 2760, 2759, 2188, 2199, 2892, 2890, 2891, 2893, 2894, 2895
9, 2791, 2299, 2300, 2785, 2898, 2896, 2897, 2899, 2900, 2901
10, 2789, 2791, 2319, 2790, 2904, 2902, 2903, 2905, 2906, 2907
11, 2790, 2785, 2300, 2786, 2909, 2901, 2908, 2910, 2911, 2912
12, 2790, 2786, 2298, 2785, 2910, 2913, 2914, 2909, 2911, 2915
13, 179, 2030, 180, 1375, 2918, 2916, 2917, 2919, 2920, 2921
14, 1700, 1430, 190, 1425, 2924, 2922, 2923, 2925, 2926, 2927
15, 2559, 1658, 1659, 600, 2930, 2928, 2929, 2931, 2932, 2933
16, 2708, 1943, 1856, 2709, 2936, 2934, 2935, 2937, 2938, 2939
17, 2708, 1856, 1907, 2452, 2935, 2940, 2941, 2942, 2943, 2944
18, 2708, 2460, 1856, 2452, 2946, 2945, 2935, 2942, 2947, 2943
19, 1743, 2726, 1686, 2614, 2950, 2948, 2949, 2951, 2952, 2953
20, 2708, 1856, 2460, 2709, 2935, 2945, 2946, 2937, 2939, 2954
** ... 10522 like lines cut
*Nset, nset=Set-1, generate
1, 18231, 1
*Elset, elset=Set-1, generate
1, 10542, 1
** Section: Section-1
*Solid Section, elset=Set-1, controls=EC-1, material=Material-1
,
*End Instance
**
*Nset, nset=bc-set-1, instance=Part-1-1
1, 2, 3, 4, 5, 6, 7, 8, 9, 10, 11, 12, 13, 14, 15, 16
17, 18, 19, 20, 21, 22, 23, 24, 25, 26, 27, 28, 29, 30, 31, 32
33, 34, 35, 36, 37, 38, 39, 40, 41, 42, 43, 44, 45, 46, 47, 48
49, 50, 51, 52, 53, 54, 55, 56, 57, 58, 59, 60, 61, 62, 63, 64
65, 66, 67, 68, 69, 70, 71, 72, 73, 74, 75, 76, 77, 78, 79, 80
81, 82, 83, 84, 85, 86, 87, 88, 89, 90, 91, 92, 93, 94, 95, 96
97, 98, 99, 100, 101, 102, 103, 104, 105, 106, 107, 108, 109, 110, 221, 222
223, 224, 225, 235, 236, 237, 238, 239, 240, 241, 242, 243, 244, 245, 246, 247
248, 249, 250, 251, 252, 253, 254, 255, 256, 257, 258, 259, 260, 261, 262, 263
264, 265, 266, 267, 268, 269, 270, 271, 272, 273, 274, 275, 276, 277, 278, 279
280, 281, 282, 283, 284, 285, 286, 287, 288, 289, 290, 291, 292, 293, 294, 295
296, 297, 298, 299, 300, 301, 302, 303, 304, 305, 306, 307, 308, 309, 310, 311
312, 313, 314, 315, 316, 317, 318, 319, 320, 321, 322, 323, 324, 325, 326, 327
328, 329, 330, 331, 332, 333, 334, 335, 336, 337, 338, 339, 340, 341, 342, 343
344, 455, 456, 457, 458, 459, 481, 482, 483, 484, 485, 486, 487, 488, 489, 490
491, 492, 493, 494, 495, 496, 497, 498, 499, 500, 501, 502, 503, 504, 505, 506
507, 508, 509, 510, 511, 512, 513, 514, 515, 516, 517, 518, 519, 520, 521, 522
523, 524, 525, 526, 527, 528, 529, 530, 531, 532, 533, 534, 535, 536, 537, 538
539, 540, 541, 542, 543, 544, 545, 546, 547, 548, 549, 550, 551, 552, 553, 554
555, 556, 557, 558, 559, 560, 561, 562, 563, 564, 565, 566, 567, 568, 569, 570
** ... 140 like lines cut
*Elset, elset=bc-set-1, instance=Part-1-1
3, 6, 15, 37, 40, 41, 42, 44, 45, 57, 58, 59, 65, 66, 67, 70
73, 74, 76, 85, 86, 87, 115, 124, 125, 134, 138, 143, 144, 146, 147, 158
159, 161, 162, 163, 169, 172, 173, 174, 175, 176, 177, 179, 180, 185, 187, 188
196, 197, 201, 203, 205, 207, 217, 233, 240, 242, 243, 251, 253, 254, 257, 268
277, 283, 286, 287, 289, 291, 297, 298, 300, 302, 310, 311, 313, 319, 327, 333
336, 344, 348, 351, 352, 354, 355, 359, 365, 382, 383, 384, 388, 391, 398, 402
404, 405, 406, 409, 411, 413, 415, 416, 417, 419, 420, 425, 428, 429, 432, 434
436, 440, 441, 443, 448, 450, 454, 468, 471, 472, 492, 501, 502, 505, 508, 523
524, 526, 528, 529, 530, 533, 535, 549, 558, 562, 563, 565, 568, 573, 582, 588
591, 592, 594, 598, 601, 602, 603, 604, 605, 606, 615, 617, 618, 619, 620, 621
622, 627, 628, 629, 631, 636, 642, 643, 647, 650, 651, 653, 654, 657, 661, 665
666, 670, 674, 675, 676, 679, 680, 690, 691, 700, 709, 716, 724, 726, 727, 729
731, 732, 736, 737, 738, 740, 741, 748, 751, 753, 759, 764, 767, 769, 773, 774
777, 785, 788, 789, 791, 792, 795, 796, 803, 808, 810, 812, 814, 817, 818, 824
829, 832, 833, 837, 838, 842, 849, 851, 856, 864, 866, 875, 878, 879, 882, 885
886, 887, 900, 903, 904, 909, 910, 916, 917, 925, 930, 934, 938, 941, 942, 946
947, 950, 951, 952, 954, 966, 969, 974, 976, 977, 980, 983, 989, 991, 1002, 1012
1017, 1018, 1019, 1034, 1044, 1048, 1051, 1054, 1058, 1061, 1062, 1064, 1071, 1073, 1074, 1077
1078, 1079, 1088, 1092, 1097, 1098, 1101, 1105, 1115, 1116, 1122, 1124, 1131, 1133, 1134, 1137
1138, 1140, 1142, 1144, 1145, 1146, 1147, 1148, 1149, 1151, 1159, 1163, 1164, 1165, 1169, 1170
** ... 182 like lines cut
*Nset, nset=bc-set-2, instance=Part-1-1
111, 112, 113, 114, 115, 116, 117, 118, 119, 120, 121, 122, 123, 124, 125, 126
127, 128, 129, 130, 131, 132, 133, 134, 135, 136, 137, 138, 139, 140, 141, 142
143, 144, 145, 146, 147, 148, 149, 150, 151, 152, 153, 154, 155, 156, 157, 158
159, 160, 161, 162, 163, 164, 165, 166, 167, 168, 169, 170, 171, 172, 173, 174
175, 176, 177, 178, 179, 180, 181, 182, 183, 184, 185, 186, 187, 188, 189, 190
191, 192, 193, 194, 195, 196, 197, 198, 199, 200, 201, 202, 203, 204, 205, 206
207, 208, 209, 210, 211, 212, 213, 214, 215, 216, 217, 218, 219, 220, 228, 229
230, 231, 232, 345, 346, 347, 348, 349, 350, 351, 352, 353, 354, 355, 356, 357
358, 359, 360, 361, 362, 363, 364, 365, 366, 367, 368, 369, 370, 371, 372, 373
374, 375, 376, 377, 378, 379, 380, 381, 382, 383, 384, 385, 386, 387, 388, 389
390, 391, 392, 393, 394, 395, 396, 397, 398, 399, 400, 401, 402, 403, 404, 405
406, 407, 408, 409, 410, 411, 412, 413, 414, 415, 416, 417, 418, 419, 420, 421
422, 423, 424, 425, 426, 427, 428, 429, 430, 431, 432, 433, 434, 435, 436, 437
438, 439, 440, 441, 442, 443, 444, 445, 446, 447, 448, 449, 450, 451, 452, 453
454, 462, 463, 464, 465, 466, 1031, 1032, 1033, 1034, 1035, 1036, 1037, 1038, 1039, 1040
1041, 1042, 1043, 1044, 1045, 1046, 1047, 1048, 1049, 1050, 1051, 1052, 1053, 1054, 1055, 1056
1057, 1058, 1059, 1060, 1061, 1062, 1063, 1064, 1065, 1066, 1067, 1068, 1069, 1070, 1071, 1072
1073, 1074, 1075, 1076, 1077, 1078, 1079, 1080, 1081, 1082, 1083, 1084, 1085, 1086, 1087, 1088
1089, 1090, 1091, 1092, 1093, 1094, 1095, 1096, 1097, 1098, 1099, 1100, 1101, 1102, 1103, 1104
1105, 1106, 1107, 1108, 1109, 1110, 1111, 1112, 1113, 1114, 1115, 1116, 1117, 1118, 1119, 1120
** ... 140 like lines cut
*Elset, elset=bc-set-2, instance=Part-1-1
4, 5, 13, 14, 22, 23, 24, 25, 26, 29, 30, 31, 46, 47, 48, 56
100, 101, 102, 103, 107, 108, 109, 110, 113, 120, 121, 122, 123, 126, 130, 133
164, 166, 168, 170, 171, 181, 190, 191, 193, 195, 198, 199, 200, 202, 204, 211
212, 213, 214, 215, 222, 223, 224, 225, 227, 228, 230, 238, 246, 247, 248, 252
258, 259, 260, 261, 262, 263, 264, 273, 274, 275, 282, 292, 293, 295, 296, 301
304, 308, 309, 318, 320, 323, 325, 330, 337, 342, 343, 345, 346, 347, 350, 358
360, 361, 362, 363, 364, 367, 369, 370, 371, 373, 374, 375, 377, 378, 379, 385
389, 390, 392, 394, 397, 400, 401, 403, 407, 421, 423, 424, 426, 431, 439, 442
445, 446, 449, 456, 461, 462, 463, 464, 473, 474, 475, 476, 478, 481, 483, 486
495, 497, 499, 500, 506, 510, 511, 512, 513, 514, 515, 517, 518, 520, 521, 527
531, 534, 537, 539, 541, 542, 543, 544, 545, 547, 555, 560, 564, 569, 570, 575
576, 578, 581, 586, 587, 589, 593, 600, 608, 637, 644, 646, 655, 656, 658, 667
668, 671, 687, 692, 693, 694, 695, 707, 708, 718, 721, 722, 735, 739, 744, 745
746, 749, 750, 756, 760, 762, 775, 778, 781, 782, 783, 786, 787, 800, 806, 807
809, 816, 819, 820, 821, 822, 830, 831, 834, 840, 841, 843, 844, 845, 846, 852
853, 857, 858, 859, 860, 862, 863, 865, 876, 884, 888, 889, 890, 893, 895, 901
905, 906, 911, 912, 914, 915, 918, 922, 924, 926, 931, 932, 933, 935, 936, 937
939, 943, 945, 948, 949, 953, 955, 956, 958, 960, 961, 962, 963, 964, 965, 967
972, 973, 984, 985, 986, 987, 988, 992, 996, 998, 999, 1000, 1001, 1003, 1004, 1005
1007, 1008, 1009, 1013, 1016, 1022, 1023, 1024, 1025, 1026, 1027, 1028, 1029, 1030, 1031, 1032
** ... 179 like lines cut
*End Assembly
**
** ELEMENT CONTROLS
**
*Section Controls, name=EC-1, hourglass=ENHANCED
1., 1., 1.
**
** MATERIALS
**
*Material, name=Material-1
*Hyperelastic, n=3, ogden
0.4017, 1.3, 0.00295, 5, 0.00981, -2, 0, 0
0,
** ----------------------------------------------------------------
**
** STEP: Step-1
**
*Step, name=Step-1, nlgeom=YES
*Static
1., 1., 1e-05, 1.
**
** BOUNDARY CONDITIONS
**
** Name: BC-1 Type: Displacement/Rotation
*Boundary
bc-set-1, 1, 1, 3
bc-set-1, 2, 6
** Name: BC-2 Type: Symmetry/Antisymmetry/Encastre
*Boundary
bc-set-2, ENCASTRE
**
** OUTPUT REQUESTS
**
*Restart, write, frequency=0
**
** FIELD OUTPUT: F-Output-1
**
*Output, field, variable=PRESELECT
**
** HISTORY OUTPUT: H-Output-1
**
*Output, history, variable=PRESELECT
*NODE PRINT
U
*EL PRINT, position = centroidal
DG
*EL PRINT, elset = bc-set-1, position = centroidal
S12
*EL PRINT, elset = bc-set-2, position = centroidal
S12
*End Step