*Heading
** Job name: sq-8mm_sin-per-0_sin-amp-0mm Model name: Model-1
** Generated by: Abaqus/CAE 2021
*Preprint, echo=NO, model=NO, history=NO, contact=NO
**
** PARTS
**
*Part, name=Part-1
*End Part
**
**
** ASSEMBLY
**
*Assembly, name=Assembly
**
*Instance, name=Part-1-1, part=Part-1
*Node
1, -20, 4, 0
2, -6.6667, 4, 0
3, 6.6667, 4, 0
4, 20, 4, 0
5, 20, -4, 0
6, 20, -1.3333, 0
7, 20, 1.3333, 0
8, -20, -4, 0
9, -6.6667, -4, 0
10, 6.6667, -4, 0
11, -20, -1.3333, 0
12, -20, 1.3333, 0
13, -20, 4, 8
14, -6.6667, 4, 8
15, 6.6667, 4, 8
16, 20, 4, 8
17, 20, -4, 8
18, 20, -1.3333, 8
19, 20, 1.3333, 8
20, -20, -4, 8
** ... 44213 like lines cut
*Element, type=C3D10H
1, 768, 2613, 766, 865, 6092, 6090, 6091, 6093, 6094, 6095
2, 4687, 4474, 5645, 5145, 6098, 6096, 6097, 6099, 6100, 6101
3, 5330, 5552, 5723, 5402, 6104, 6102, 6103, 6105, 6106, 6107
4, 5552, 4630, 5330, 4990, 6109, 6108, 6104, 6110, 6111, 6112
5, 5238, 4885, 4034, 4897, 6115, 6113, 6114, 6116, 6117, 6118
6, 5231, 4016, 4876, 4865, 6121, 6119, 6120, 6122, 6123, 6124
7, 5702, 5614, 5240, 5412, 6127, 6125, 6126, 6128, 6129, 6130
8, 5462, 5460, 4891, 5455, 6133, 6131, 6132, 6134, 6135, 6136
9, 4671, 4390, 3469, 5370, 6139, 6137, 6138, 6140, 6141, 6142
10, 5814, 5815, 5454, 5813, 6145, 6143, 6144, 6146, 6147, 6148
11, 5710, 5816, 5462, 5455, 6151, 6149, 6150, 6152, 6153, 6134
12, 5816, 5455, 5460, 5462, 6153, 6135, 6154, 6149, 6134, 6133
13, 5695, 5698, 4865, 5231, 6157, 6155, 6156, 6158, 6159, 6122
14, 5866, 4879, 5460, 5455, 6162, 6160, 6161, 6163, 6164, 6135
15, 5708, 5706, 4910, 5466, 6167, 6165, 6166, 6168, 6169, 6170
16, 5397, 5092, 4594, 5399, 6173, 6171, 6172, 6174, 6175, 6176
17, 5770, 5825, 5486, 5483, 6179, 6177, 6178, 6180, 6181, 6182
18, 5397, 4582, 4592, 5090, 6185, 6183, 6184, 6186, 6187, 6188
19, 5770, 5399, 5092, 5397, 6190, 6175, 6189, 6191, 6174, 6173
20, 5267, 5255, 4943, 4909, 6194, 6192, 6193, 6195, 6196, 6197
** ... 29990 like lines cut
*Nset, nset=Set-1, generate
1, 44233, 1
*Elset, elset=Set-1, generate
1, 30010, 1
** Section: Section-1
*Solid Section, elset=Set-1, controls=EC-1, material=Material-1
,
*End Instance
**
*Nset, nset=bc-set-1, instance=Part-1-1
1, 2, 3, 4, 13, 14, 15, 16, 29, 30, 31, 32, 33, 34, 35, 36
37, 38, 39, 40, 41, 42, 73, 74, 75, 76, 77, 78, 79, 80, 81, 82
83, 84, 85, 86, 107, 108, 109, 110, 111, 112, 113, 114, 115, 116, 117, 118
119, 120, 125, 126, 127, 128, 129, 130, 131, 132, 133, 134, 135, 136, 137, 138
169, 170, 171, 172, 173, 174, 175, 176, 177, 178, 179, 180, 181, 182, 201, 202
203, 204, 205, 206, 207, 208, 209, 210, 211, 212, 213, 214, 217, 218, 219, 220
221, 222, 223, 224, 225, 226, 227, 228, 229, 230, 231, 232, 233, 234, 235, 236
237, 238, 239, 240, 241, 242, 243, 244, 245, 246, 247, 248, 1113, 1114, 1115, 1116
1117, 1118, 1119, 1120, 1121, 1122, 1123, 1124, 1125, 1126, 1127, 1128, 1129, 1130, 1131, 1132
1133, 1134, 1135, 1136, 1137, 1138, 1139, 1140, 1141, 1142, 1143, 1144, 1145, 1146, 1147, 1148
1149, 1150, 1151, 1152, 1153, 1154, 1155, 1156, 1157, 1158, 1159, 1160, 1161, 1162, 1163, 1164
1165, 1166, 1167, 1168, 1169, 1170, 1171, 1172, 1173, 1174, 1175, 1176, 1177, 1178, 1179, 1180
1181, 1182, 1183, 1184, 1185, 1186, 1187, 1188, 1189, 1190, 1191, 1192, 1193, 1194, 1195, 1196
1197, 1198, 1199, 1200, 1201, 1202, 1203, 1204, 1205, 1206, 1207, 1208, 1209, 1210, 1211, 1212
1213, 1214, 1215, 1216, 1217, 1218, 1219, 1220, 1221, 1222, 1223, 1224, 1225, 1226, 1227, 1228
1229, 1230, 1231, 1232, 1233, 1234, 1235, 1236, 1237, 1238, 1239, 1240, 1241, 1242, 1243, 1244
1245, 1246, 1247, 1248, 1249, 1250, 1251, 1252, 1253, 1254, 1255, 1256, 1257, 1258, 1259, 1260
1261, 1262, 1263, 1264, 1265, 1266, 1267, 1268, 1269, 1270, 1271, 1272, 1273, 1274, 1275, 1276
1277, 1278, 1279, 1280, 1281, 1282, 1283, 1284, 1285, 1286, 1287, 1288, 1289, 1290, 1291, 1292
1293, 1294, 1295, 1296, 1297, 1298, 1299, 1300, 1301, 1302, 1303, 1304, 1305, 1306, 1307, 1308
** ... 102 like lines cut
*Elset, elset=bc-set-1, instance=Part-1-1
37, 78, 132, 200, 253, 256, 261, 272, 313, 334, 341, 361, 419, 437, 472, 476
495, 523, 542, 560, 570, 593, 605, 621, 623, 644, 704, 732, 734, 773, 779, 809
823, 842, 854, 881, 885, 904, 923, 934, 958, 964, 976, 989, 1012, 1049, 1124, 1155
1168, 1228, 1244, 1333, 1334, 1338, 1339, 1377, 1380, 1384, 1404, 1432, 1467, 1471, 1472, 1480
1526, 1550, 1551, 1566, 1567, 1629, 1634, 1638, 1639, 1647, 1651, 1675, 1677, 1702, 1723, 1724
1731, 1746, 1749, 1765, 1768, 1810, 1828, 1829, 1833, 1866, 1872, 1919, 1925, 1933, 1937, 1958
1968, 1977, 1980, 1986, 2012, 2013, 2017, 2018, 2041, 2044, 2051, 2061, 2062, 2071, 2087, 2110
2111, 2112, 2125, 2148, 2153, 2154, 2166, 2173, 2179, 2184, 2187, 2200, 2205, 2207, 2210, 2215
2218, 2227, 2232, 2279, 2280, 2302, 2318, 2329, 2358, 2367, 2395, 2416, 2437, 2447, 2451, 2486
2487, 2493, 2500, 2503, 2533, 2540, 2543, 2558, 2562, 2563, 2564, 2567, 2569, 2572, 2582, 2591
2622, 2623, 2625, 2626, 2629, 2632, 2633, 2639, 2643, 2652, 2653, 2654, 2675, 2678, 2680, 2690
2702, 2704, 2766, 2768, 2780, 2782, 2815, 2816, 2817, 2820, 2824, 2833, 2834, 2857, 2858, 2868
2874, 2880, 2894, 2914, 2916, 2927, 2929, 2976, 2984, 2991, 2998, 3010, 3035, 3054, 3058, 3061
3062, 3064, 3074, 3098, 3101, 3104, 3132, 3136, 3143, 3149, 3163, 3169, 3197, 3205, 3207, 3217
3231, 3238, 3239, 3241, 3254, 3262, 3271, 3283, 3284, 3298, 3302, 3309, 3318, 3321, 3345, 3353
3355, 3360, 3369, 3372, 3387, 3389, 3406, 3417, 3423, 3428, 3434, 3448, 3455, 3457, 3460, 3461
3484, 3489, 3493, 3494, 3514, 3519, 3520, 3521, 3522, 3523, 3537, 3601, 3612, 3620, 3622, 3624
3625, 3639, 3674, 3675, 3679, 3682, 3684, 3691, 3693, 3695, 3712, 3716, 3722, 3737, 3738, 3769
3772, 3773, 3805, 3858, 3867, 3870, 3872, 3873, 3876, 3881, 3914, 3951, 3979, 3981, 3983, 3988
3991, 3993, 3996, 4003, 4013, 4026, 4040, 4047, 4051, 4052, 4069, 4079, 4081, 4085, 4089, 4109
** ... 153 like lines cut
*Nset, nset=bc-set-2, instance=Part-1-1
5, 8, 9, 10, 17, 20, 21, 22, 43, 44, 45, 46, 47, 48, 49, 50
51, 52, 53, 54, 55, 56, 57, 58, 59, 60, 61, 62, 63, 64, 65, 66
67, 68, 69, 70, 87, 88, 89, 90, 91, 92, 93, 94, 95, 96, 97, 98
99, 100, 139, 140, 141, 142, 143, 144, 145, 146, 147, 148, 149, 150, 151, 152
153, 154, 155, 156, 157, 158, 159, 160, 161, 162, 163, 164, 165, 166, 183, 184
185, 186, 187, 188, 189, 190, 191, 192, 193, 194, 195, 196, 249, 250, 251, 252
253, 254, 255, 256, 273, 274, 275, 276, 277, 278, 279, 280, 281, 282, 283, 284
285, 286, 287, 288, 289, 290, 291, 292, 293, 294, 295, 296, 1581, 1582, 1583, 1584
1585, 1586, 1587, 1588, 1589, 1590, 1591, 1592, 1593, 1594, 1595, 1596, 1597, 1598, 1599, 1600
1601, 1602, 1603, 1604, 1605, 1606, 1607, 1608, 1609, 1610, 1611, 1612, 1613, 1614, 1615, 1616
1617, 1618, 1619, 1620, 1621, 1622, 1623, 1624, 1625, 1626, 1627, 1628, 1629, 1630, 1631, 1632
1633, 1634, 1635, 1636, 1637, 1638, 1639, 1640, 1641, 1642, 1643, 1644, 1645, 1646, 1647, 1648
1649, 1650, 1651, 1652, 1653, 1654, 1655, 1656, 1657, 1658, 1659, 1660, 1661, 1662, 1663, 1664
1665, 1666, 1667, 1668, 1669, 1670, 1671, 1672, 1673, 1674, 1675, 1676, 1677, 1678, 1679, 1680
1681, 1682, 1683, 1684, 1685, 1686, 1687, 1688, 1689, 1690, 1691, 1692, 1693, 1694, 1695, 1696
1697, 1698, 1699, 1700, 1701, 1702, 1703, 1704, 1705, 1706, 1707, 1708, 1709, 1710, 1711, 1712
1713, 1714, 1715, 1716, 1717, 1718, 1719, 1720, 1721, 1722, 1723, 1724, 1725, 1726, 1727, 1728
1729, 1730, 1731, 1732, 1733, 1734, 1735, 1736, 1737, 1738, 1739, 1740, 1741, 1742, 1743, 1744
1745, 1746, 1747, 1748, 1749, 1750, 1751, 1752, 1753, 1754, 1755, 1756, 1757, 1758, 1759, 1760
1761, 1762, 1763, 1764, 1765, 1766, 1767, 1768, 1769, 1770, 1771, 1772, 1773, 1774, 1775, 1776
** ... 102 like lines cut
*Elset, elset=bc-set-2, instance=Part-1-1
30, 195, 206, 213, 228, 236, 240, 246, 249, 282, 285, 318, 330, 333, 346, 356
399, 404, 423, 426, 451, 489, 491, 492, 493, 494, 503, 516, 525, 534, 558, 564
579, 620, 622, 645, 646, 669, 674, 686, 710, 715, 763, 777, 787, 788, 805, 812
835, 841, 857, 889, 909, 955, 963, 968, 1009, 1017, 1020, 1041, 1042, 1048, 1056, 1063
1081, 1103, 1106, 1108, 1111, 1112, 1161, 1176, 1180, 1207, 1267, 1306, 1308, 1311, 1325, 1332
1340, 1342, 1353, 1378, 1421, 1456, 1524, 1556, 1562, 1574, 1583, 1602, 1615, 1626, 1628, 1676
1680, 1687, 1689, 1690, 1701, 1704, 1705, 1728, 1753, 1760, 1772, 1782, 1787, 1822, 1844, 1851
1859, 1861, 1871, 1877, 1891, 1901, 1906, 1908, 1923, 1924, 1929, 1938, 1942, 1957, 1999, 2025
2027, 2072, 2076, 2085, 2091, 2127, 2129, 2131, 2147, 2149, 2159, 2164, 2194, 2204, 2239, 2260
2361, 2362, 2387, 2390, 2454, 2458, 2492, 2494, 2495, 2497, 2498, 2508, 2527, 2581, 2583, 2584
2607, 2647, 2648, 2681, 2685, 2705, 2707, 2711, 2743, 2749, 2759, 2762, 2763, 2795, 2796, 2799
2802, 2818, 2826, 2850, 2903, 2906, 2940, 2950, 2992, 2994, 3000, 3012, 3031, 3041, 3080, 3100
3112, 3118, 3121, 3148, 3152, 3173, 3178, 3201, 3209, 3227, 3244, 3246, 3248, 3255, 3257, 3275
3276, 3277, 3288, 3290, 3292, 3293, 3294, 3295, 3296, 3303, 3313, 3330, 3331, 3332, 3336, 3338
3344, 3346, 3359, 3374, 3379, 3394, 3411, 3421, 3422, 3464, 3476, 3532, 3588, 3589, 3593, 3598
3641, 3658, 3662, 3665, 3676, 3680, 3700, 3702, 3706, 3711, 3723, 3727, 3748, 3750, 3751, 3755
3770, 3771, 3775, 3776, 3783, 3784, 3791, 3798, 3801, 3820, 3821, 3822, 3828, 3860, 3889, 3894
3901, 3920, 3938, 3945, 3967, 4077, 4094, 4111, 4113, 4114, 4118, 4120, 4121, 4122, 4130, 4132
4154, 4158, 4165, 4168, 4181, 4182, 4202, 4215, 4224, 4227, 4232, 4266, 4267, 4269, 4272, 4290
4294, 4332, 4341, 4365, 4374, 4378, 4380, 4397, 4401, 4402, 4406, 4408, 4438, 4439, 4442, 4446
** ... 153 like lines cut
*End Assembly
**
** ELEMENT CONTROLS
**
*Section Controls, name=EC-1, hourglass=ENHANCED
1., 1., 1.
**
** MATERIALS
**
*Material, name=Material-1
*Hyperelastic, neo hooke
0.001724, 60
** ----------------------------------------------------------------
**
** STEP: Step-1
**
*Step, name=Step-1, nlgeom=YES
*Static
1., 1., 1e-05, 1.
**
** BOUNDARY CONDITIONS
**
** Name: BC-1 Type: Displacement/Rotation
*Boundary
bc-set-1, 1, 1, 3
bc-set-1, 2, 6
** Name: BC-2 Type: Symmetry/Antisymmetry/Encastre
*Boundary
bc-set-2, ENCASTRE
**
** OUTPUT REQUESTS
**
*Restart, write, frequency=0
**
** FIELD OUTPUT: F-Output-1
**
*Output, field, variable=PRESELECT
**
** HISTORY OUTPUT: H-Output-1
**
*Output, history, variable=PRESELECT
*End Step
