1

   Abaqus 2021                                  Date 20-Jul-2023   Time 13:48:06
   For use by UNIVERSITY OF MICHIGAN under license from Dassault Systemes or its subsidiary.



                         The Abaqus Software is a product of:

                           Dassault Systemes SIMULIA Corp.
                           1301 Atwood Avenue, Suite 101W
                              Johnston, RI 02919, USA
 


                   The Abaqus Software is available only under license
                   from Dassault Systemes or its subsidiary and may be
                   used or reproduced only in accordance with the terms
                   of such license.
 
                          On machine ME-ESTRADALAB04 
                          you are authorized to run
                          Abaqus/Standard until 31-Jul-2024

                          Your site id is: 200000000004058 


 
                    For assistance or any other information you may
                    obtain contact information for your local office
                    from the world wide web at:

                      http://www.3ds.com/products/simulia/locations/

 
                * * * * * * * * * * * * * * * * * * * * * * * * * * * * * * 
                *                                                         * 
                *                   *****************                     * 
                *                   *  N O T I C E  *                     * 
                *                   *****************                     * 
                *                                                         * 
                *                                                         * 
                *                       Abaqus 2021                       * 
                *                                                         * 
                *          BUILD ID: 2020_03_06-09.50.37 167380           * 
                *                                                         * 
                *                                                         * 
                *  Please make sure you are using                         * 
                *  release Abaqus 2021 manuals                            * 
                *  plus the notes accompanying this release.              * 
                *                                                         * 
                *                                                         * 
                *                                                         * 
                *                                                         * 
                *                                                         * 
                *   This program may not be used for commercial purposes  * 
                *           without payment of a commercial fee.          * 
                *                                                         * 
                * * * * * * * * * * * * * * * * * * * * * * * * * * * * * * 


 



     PROCESSING PART, INSTANCE, AND ASSEMBLY INFORMATION
   *******************************************************


 ***WARNING: in keyword *ELSET, file 
             "sq-8mm_sin-per-2_sin-amp-2mm_tet_test.inp", line 12688: One or 
             more data lines contain more than 16 items (counting those after 
             trailing commas).  The extra items are deleted.

 ***WARNING: in keyword *ELSET, file 
             "sq-8mm_sin-per-2_sin-amp-2mm_tet_test.inp", line 12888: One or 
             more data lines contain more than 16 items (counting those after 
             trailing commas).  The extra items are deleted.

     END PROCESSING PART, INSTANCE, AND ASSEMBLY INFORMATION
   ***********************************************************




     OPTIONS BEING PROCESSED
   ***************************


  *Heading
  *Node
  *Element, type=C3D4H
  *Nset, nset=ASSEMBLY_PART-1-1_SET-1
  *Elset, elset=ASSEMBLY_PART-1-1_SET-1
  *Nset, nset=ASSEMBLY_BC-SET-1
  *Nset, nset=ASSEMBLY_BC-SET-2
  *Elset, elset=ASSEMBLY_BC-SET-1
  *Elset, elset=ASSEMBLY_BC-SET-2
  *material, name=MATERIAL-1
  *hyperelastic, neohooke
  *solidsection, elset=ASSEMBLY_PART-1-1_SET-1, controls=EC-1, material=MATERIAL-1
  *sectioncontrols, name=EC-1, hourglass=ENHANCED

 ***WARNING: THE PARAMETER HOURGLASS = ENHANCED ON THE SECTION CONTROLS OPTION 
             IS RELEVANT FOR THESE ELEMENTS: C3D8R, CAX4R, CGAX4R, CPEG4R, 
             CPE4R, CPS4R, M3D4R, S4R, SC8R AND THEIR HYBRID, THERMAL AND 
             PRESSURE COUNTERPARTS WHEREVER APPLICABLE. IT IS ALSO RELEVANT FOR 
             ALL TYPES OF MODIFIED TRIANGULAR AND TETRAHEDRAL ELEMENTS. THIS 
             WARNING CAN BE IGNORED IF THE FEATURE IS APPLIED TO THESE ELEMENT 
             TYPES ONLY.
  *solidsection, elset=ASSEMBLY_PART-1-1_SET-1, controls=EC-1, material=MATERIAL-1
  *boundary
  *boundary
  *boundary
  *boundary
  *output, field, variable=PRESELECT
  *output, history, variable=PRESELECT
  *output, field, variable=PRESELECT
  *output, history, variable=PRESELECT
  *output, field, variable=PRESELECT
  *output, history, variable=PRESELECT

 ***NOTE: C3D10HS AND HYBRID TETRAHEDRAL ELEMENTS WILL ENFORCE VOLUMETRIC 
          CONTINUITY ACROSS MATERIAL BOUNDARIES. IN ORDER TO ALLOW 
          DISCONTINUITIES IN THE VOLUMETRIC FIELD USE *TIE.
  *Step, name=Step-1, nlgeom=YES
  *output, field, variable=PRESELECT
  *output, history, variable=PRESELECT
  *Step, name=Step-1, nlgeom=YES
  *Step, name=Step-1, nlgeom=YES
  *static
  *boundary
  *boundary
  *output, field, variable=PRESELECT
  *output, history, variable=PRESELECT
  *nodeprint
  *elprint, position=CENTROIDAL

 ***WARNING: OUTPUT REQUEST DG IS ONLY AVAILABLE FOR *HYPERELASTIC/FOAM AND 
             *USER MATERIAL.
  *nodeprint, nset=ASSEMBLY_BC-SET-1
  *nodeprint, nset=ASSEMBLY_BC-SET-2
  *endstep
  *Step, name=Step-1, nlgeom=YES
  *static
  *boundary
  *boundary
  *endstep

 ***NOTE: Boundary conditions are specified on inactive dof of 679 nodes. The 
          nodes have been identified in node set WarnNodeBCInactiveDof.


                              E L E M E N T,   N O D E,   A N D   S U R F A C E   M A P S


**NOTE: This section may not include complete information about
        members of sets and surfaces. Use *PREPRINT, MODEL=YES 
        in order to get the set and surface members printed    
        under the following sections:                          
            - E L E M E N T   S E T S                          
            - N O D E   S E T S                                
            - S U R F A C E   D E F I N I T I O N S .          


Assembly name: ASSEMBLY
Number of instances: 1

ASSEMBLY LEVEL
  node sets:
    BC-SET-1:
      instance name: PART-1-1
      number of nodes: 679
      nodes: 
        1 2 3 4 5 6 7 8 9 10 11 12 13 14 15 16 17 18 19 20 21 22 23 24
        25 26 27 28 29 30 31 32 33 34 35 36 37 38 39 40 41 42 43 44 45
        46 47 48 49 50 51 52 53 54 55 56 57 58 59 60 61 62 63 64 65 66
        67 68 69 70 71 72 73 74 75 76 77 78 79 80 81 82 83 84 85 86 87
        88 89 90 91 92 93 94 189 190 191 199 200 201 202 203 204 205 206
        207 208 209 210 211 212 213 214 215 216 217 218 219 220 221 222
        223 224 225 226 227 228 229 230 231 232 233 234 235 236 237 238
        239 240 241 242 243 244 245 246 247 248 249 250 251 252 253 254
        255 256 257 258 259 260 261 262 263 264 265 266 267 268 269 270
        271 272 273 274 275 276 277 278 279 280 281 282 283 284 285 286
        287 288 289 290 291 292 387 388 389 409 410 411 412 413 414 415
        416 417 418 419 420 421 422 423 424 425 426 427 428 429 430 431
        432 433 434 435 436 437 438 439 440 441 442 443 444 445 446 447
        448 449 450 451 452 453 454 455 456 457 458 459 460 461 462 463
        464 465 466 467 468 469 470 471 472 473 474 475 476 477 478 479
        480 481 482 483 484 485 486 487 488 489 490 491 492 493 494 495
        496 497 498 499 500 501 502 503 504 505 506 507 508 509 510 511
        512 513 514 515 516 517 518 519 520 521 522 523 524 525 526 527
        528 529 530 531 532 533 534 535 536 537 538 539 540 541 542 543
        544 545 546 547 548 549 550 551 552 553 554 555 556 557 558 559
        560 561 562 563 564 565 566 567 568 569 570 571 572 573 574 575
        576 577 578 579 580 581 582 583 584 585 586 587 588 589 590 591
        592 593 594 595 596 597 598 599 600 601 602 603 604 605 606 607
        608 609 610 611 612 613 614 615 616 617 618 619 620 621 622 623
        624 625 626 627 628 629 630 631 632 633 634 635 636 637 638 639
        640 641 642 643 644 645 646 647 648 649 650 651 652 653 654 655
        656 657 658 659 660 661 662 663 664 665 666 667 668 669 670 671
        672 673 674 675 676 677 678 679 680 681 682 683 684 685 686 687
        688 689 690 691 692 693 694 695 696 697 698 699 700 701 702 703
        704 705 706 707 708 709 710 711 712 713 714 715 716 717 718 719
        720 721 722 723 724 725 726 727 728 729 730 731 732 733 734 735
        736 737 738 739 740 741 742 743 744 745 746 747 748 749 750 751
        752 753 754 755 756 757 758 759 760 761 762 763 764 765 766 767
        768 769 770 771 772 773 774 775 776 777 778 779 780 781 782 783
        784 785 786 787 788 789 790 791 792 793 794 795 796 797 798 799
        800 801 802 803 804 805 806 807 808 809 810 811 812 813 814 815
        816 817 818 819 820 821 822 823 824 825 826 827 828 829 830 831
        832 833 834 835 836 837 838 839 840 841 842 843 844 845 846 847
        848 849 850 851 852 853 854 855 856 857 858 859 860 861 862 863
        864 865 866 867 868 869 870 871 872 873 874 875 876 877 878 1349
        1350 1351 1352 1353 1354 1355 1356 1357 1358 1359 1360 1361 1362
        1363

    BC-SET-2:
      instance name: PART-1-1
      number of nodes: 679
      nodes: 
        95 96 97 98 99 100 101 102 103 104 105 106 107 108 109 110 111
        112 113 114 115 116 117 118 119 120 121 122 123 124 125 126 127
        128 129 130 131 132 133 134 135 136 137 138 139 140 141 142 143
        144 145 146 147 148 149 150 151 152 153 154 155 156 157 158 159
        160 161 162 163 164 165 166 167 168 169 170 171 172 173 174 175
        176 177 178 179 180 181 182 183 184 185 186 187 188 194 195 196
        293 294 295 296 297 298 299 300 301 302 303 304 305 306 307 308
        309 310 311 312 313 314 315 316 317 318 319 320 321 322 323 324
        325 326 327 328 329 330 331 332 333 334 335 336 337 338 339 340
        341 342 343 344 345 346 347 348 349 350 351 352 353 354 355 356
        357 358 359 360 361 362 363 364 365 366 367 368 369 370 371 372
        373 374 375 376 377 378 379 380 381 382 383 384 385 386 392 393
        394 879 880 881 882 883 884 885 886 887 888 889 890 891 892 893
        894 895 896 897 898 899 900 901 902 903 904 905 906 907 908 909
        910 911 912 913 914 915 916 917 918 919 920 921 922 923 924 925
        926 927 928 929 930 931 932 933 934 935 936 937 938 939 940 941
        942 943 944 945 946 947 948 949 950 951 952 953 954 955 956 957
        958 959 960 961 962 963 964 965 966 967 968 969 970 971 972 973
        974 975 976 977 978 979 980 981 982 983 984 985 986 987 988 989
        990 991 992 993 994 995 996 997 998 999 1000 1001 1002 1003 1004
        1005 1006 1007 1008 1009 1010 1011 1012 1013 1014 1015 1016 1017
        1018 1019 1020 1021 1022 1023 1024 1025 1026 1027 1028 1029 1030
        1031 1032 1033 1034 1035 1036 1037 1038 1039 1040 1041 1042 1043
        1044 1045 1046 1047 1048 1049 1050 1051 1052 1053 1054 1055 1056
        1057 1058 1059 1060 1061 1062 1063 1064 1065 1066 1067 1068 1069
        1070 1071 1072 1073 1074 1075 1076 1077 1078 1079 1080 1081 1082
        1083 1084 1085 1086 1087 1088 1089 1090 1091 1092 1093 1094 1095
        1096 1097 1098 1099 1100 1101 1102 1103 1104 1105 1106 1107 1108
        1109 1110 1111 1112 1113 1114 1115 1116 1117 1118 1119 1120 1121
        1122 1123 1124 1125 1126 1127 1128 1129 1130 1131 1132 1133 1134
        1135 1136 1137 1138 1139 1140 1141 1142 1143 1144 1145 1146 1147
        1148 1149 1150 1151 1152 1153 1154 1155 1156 1157 1158 1159 1160
        1161 1162 1163 1164 1165 1166 1167 1168 1169 1170 1171 1172 1173
        1174 1175 1176 1177 1178 1179 1180 1181 1182 1183 1184 1185 1186
        1187 1188 1189 1190 1191 1192 1193 1194 1195 1196 1197 1198 1199
        1200 1201 1202 1203 1204 1205 1206 1207 1208 1209 1210 1211 1212
        1213 1214 1215 1216 1217 1218 1219 1220 1221 1222 1223 1224 1225
        1226 1227 1228 1229 1230 1231 1232 1233 1234 1235 1236 1237 1238
        1239 1240 1241 1242 1243 1244 1245 1246 1247 1248 1249 1250 1251
        1252 1253 1254 1255 1256 1257 1258 1259 1260 1261 1262 1263 1264
        1265 1266 1267 1268 1269 1270 1271 1272 1273 1274 1275 1276 1277
        1278 1279 1280 1281 1282 1283 1284 1285 1286 1287 1288 1289 1290
        1291 1292 1293 1294 1295 1296 1297 1298 1299 1300 1301 1302 1303
        1304 1305 1306 1307 1308 1309 1310 1311 1312 1313 1314 1315 1316
        1317 1318 1319 1320 1321 1322 1323 1324 1325 1326 1327 1328 1329
        1330 1331 1332 1333 1334 1335 1336 1337 1338 1339 1340 1341 1342
        1343 1344 1345 1346 1347 1348 1374 1375 1376 1377 1378 1379 1380
        1381 1382 1383 1384 1385 1386 1387 1388

  element sets:
    BC-SET-1:
      instance name: PART-1-1
      number of elements: 2465
      elements: 
        38 46 48 57 58 59 60 62 65 68 69 74 75 76 80 82 83 88 92 96 101
        105 109 116 117 120 124 125 128 129 130 131 132 133 135 136 139
        140 141 142 144 145 148 149 151 153 161 168 171 182 183 184 185
        187 188 191 193 195 196 205 210 224 242 260 261 262 264 265 279
        283 284 285 286 287 288 289 295 296 297 305 313 317 323 326 328
        333 334 335 336 339 340 341 342 343 344 356 358 366 367 370 371
        372 373 378 379 381 383 384 385 392 394 396 399 401 402 415 416
        417 418 419 420 424 434 436 438 440 443 455 457 459 462 463 464
        465 467 477 489 496 499 500 501 502 503 504 506 507 509 511 512
        529 530 532 533 535 536 538 543 546 547 558 563 566 567 571 572
        589 590 592 593 594 598 599 600 601 603 604 605 606 609 610 614
        620 621 627 628 637 638 639 640 641 644 652 657 662 665 667 668
        669 672 673 675 678 681 683 684 685 690 691 692 695 696 697 698
        699 700 701 702 704 706 708 717 722 723 729 730 735 744 745 747
        748 750 751 753 754 756 757 758 759 760 763 766 767 768 772 773
        774 779 782 783 785 798 799 802 804 805 810 819 820 823 825 826
        827 828 829 830 831 833 835 837 842 843 844 845 846 849 854 859
        861 864 865 866 868 869 870 872 873 874 885 886 888 895 898 907
        908 909 910 911 912 913 914 916 918 919 922 932 948 952 954 958
        964 965 969 970 971 972 973 974 975 977 978 979 980 983 997 998
        999 1000 1012 1013 1014 1015 1033 1034 1035 1037 1041 1042 1044
        1049 1059 1068 1069 1070 1073 1074 1075 1077 1080 1081 1082 1083
        1084 1088 1089 1106 1107 1108 1116 1119 1134 1140 1142 1144 1151
        1154 1155 1161 1164 1165 1166 1167 1169 1170 1171 1175 1191 1192
        1198 1199 1203 1204 1208 1212 1213 1218 1220 1242 1243 1244 1250
        1251 1254 1255 1256 1257 1262 1263 1265 1272 1279 1284 1286 1291
        1292 1293 1294 1301 1303 1306 1307 1308 1309 1311 1312 1315 1317
        1318 1319 1320 1321 1323 1326 1333 1341 1356 1357 1365 1366 1373
        1378 1382 1388 1389 1392 1398 1401 1404 1405 1408 1410 1412 1415
        1419 1421 1422 1423 1427 1430 1438 1443 1444 1447 1448 1449 1451
        1452 1456 1459 1465 1470 1474 1476 1477 1483 1490 1491 1497 1498
        1499 1501 1506 1519 1520 1523 1524 1526 1527 1528 1532 1534 1542
        1546 1547 1548 1551 1552 1555 1556 1562 1563 1564 1565 1571 1574
        1592 1594 1598 1599 1600 1602 1603 1604 1605 1606 1607 1608 1609
        1612 1614 1618 1621 1625 1627 1628 1630 1631 1633 1636 1637 1638
        1639 1640 1641 1648 1652 1657 1659 1660 1661 1662 1668 1669 1670
        1671 1672 1681 1682 1689 1695 1697 1700 1702 1705 1709 1712 1713
        1714 1718 1720 1722 1728 1731 1732 1735 1742 1746 1748 1749 1750
        1754 1761 1763 1765 1766 1769 1770 1772 1773 1775 1776 1777 1778
        1779 1785 1812 1814 1824 1825 1844 1847 1852 1857 1858 1863 1868
        1877 1880 1888 1892 1911 1914 1916 1930 1931 1937 1940 1945 1949
        1950 1952 1953 1955 1956 1961 1962 1971 1973 1983 1987 1993 1995
        1999 2000 2005 2007 2009 2010 2013 2014 2016 2019 2020 2022 2025
        2027 2028 2043 2044 2050 2055 2056 2060 2066 2067 2068 2071 2082
        2084 2086 2087 2093 2099 2101 2104 2108 2109 2110 2118 2128 2133
        2139 2141 2145 2155 2157 2164 2165 2170 2173 2174 2175 2176 2179
        2181 2185 2187 2188 2192 2194 2205 2207 2208 2209 2210 2212 2213
        2216 2217 2218 2219 2229 2230 2238 2248 2251 2253 2257 2258 2259
        2265 2271 2277 2284 2285 2287 2288 2301 2302 2309 2310 2314 2316
        2317 2318 2319 2322 2329 2333 2334 2336 2340 2341 2342 2345 2353
        2356 2358 2361 2363 2371 2378 2390 2393 2403 2404 2409 2410 2411
        2412 2413 2414 2416 2417 2418 2427 2435 2442 2443 2444 2445 2447
        2448 2451 2461 2462 2463 2469 2472 2475 2478 2482 2490 2495 2496
        2502 2503 2507 2508 2511 2512 2513 2515 2519 2521 2527 2532 2535
        2540 2552 2555 2557 2559 2562 2564 2567 2569 2570 2571 2573 2574
        2576 2579 2589 2594 2598 2601 2602 2608 2611 2624 2630 2632 2633
        2637 2639 2640 2641 2646 2650 2657 2660 2661 2662 2663 2664 2665
        2667 2680 2682 2703 2704 2707 2719 2720 2721 2722 2723 2725 2727
        2730 2731 2732 2734 2744 2761 2763 2764 2765 2766 2767 2768 2771
        2776 2779 2784 2786 2789 2793 2797 2801 2802 2804 2806 2808 2817
        2821 2824 2827 2828 2829 2834 2838 2839 2840 2841 2842 2843 2845
        2847 2855 2861 2870 2871 2876 2882 2885 2886 2887 2888 2889 2891
        2892 2893 2894 2895 2896 2898 2899 2900 2907 2910 2911 2918 2924
        2927 2929 2934 2936 2939 2941 2948 2951 2964 2970 2973 2979 2980
        2981 2985 2991 2995 3006 3010 3013 3014 3015 3020 3033 3035 3042
        3044 3047 3051 3052 3053 3055 3056 3057 3060 3063 3074 3079 3081
        3082 3087 3088 3089 3090 3091 3093 3096 3099 3100 3102 3108 3109
        3110 3111 3113 3114 3115 3120 3126 3129 3130 3141 3155 3158 3163
        3166 3167 3171 3173 3174 3176 3179 3185 3191 3196 3200 3202 3205
        3207 3227 3228 3232 3235 3236 3247 3248 3249 3250 3251 3261 3262
        3265 3266 3267 3271 3272 3274 3280 3282 3285 3286 3287 3288 3291
        3294 3295 3297 3298 3299 3302 3303 3304 3305 3306 3307 3309 3314
        3315 3318 3319 3321 3327 3329 3330 3331 3332 3333 3339 3342 3344
        3349 3351 3352 3354 3357 3365 3366 3373 3379 3381 3383 3395 3397
        3398 3399 3404 3411 3415 3422 3423 3426 3427 3429 3433 3434 3436
        3437 3449 3456 3458 3460 3463 3472 3479 3480 3483 3487 3491 3492
        3493 3494 3495 3496 3497 3503 3504 3505 3507 3510 3512 3513 3518
        3524 3526 3527 3528 3537 3539 3540 3548 3550 3552 3555 3557 3568
        3574 3580 3585 3591 3595 3598 3599 3601 3608 3612 3614 3615 3628
        3632 3635 3636 3637 3641 3642 3647 3649 3656 3658 3659 3660 3663
        3665 3667 3668 3670 3675 3683 3684 3686 3687 3693 3694 3695 3696
        3698 3702 3703 3704 3711 3715 3718 3721 3722 3726 3727 3731 3742
        3744 3746 3748 3760 3762 3768 3772 3775 3781 3782 3783 3785 3786
        3799 3805 3809 3810 3822 3823 3824 3825 3826 3827 3828 3831 3832
        3837 3838 3859 3868 3871 3873 3875 3878 3885 3890 3897 3908 3909
        3911 3913 3914 3920 3921 3923 3924 3925 3926 3928 3933 3934 3940
        3943 3944 3948 3951 3952 3955 3958 3965 3975 3979 3986 3987 3988
        3989 4000 4002 4009 4011 4016 4018 4019 4027 4032 4039 4043 4045
        4046 4048 4050 4052 4054 4056 4059 4062 4063 4069 4071 4075 4077
        4088 4092 4094 4097 4098 4102 4104 4105 4106 4112 4113 4117 4120
        4121 4126 4129 4131 4142 4143 4144 4147 4148 4153 4156 4160 4163
        4171 4172 4174 4175 4176 4178 4185 4186 4187 4189 4222 4225 4228
        4230 4232 4238 4242 4243 4246 4247 4256 4257 4258 4260 4262 4264
        4272 4273 4275 4281 4286 4290 4291 4305 4317 4318 4327 4330 4334
        4335 4340 4343 4344 4345 4347 4348 4354 4358 4360 4368 4373 4381
        4382 4383 4387 4399 4405 4414 4418 4422 4434 4435 4437 4439 4440
        4444 4446 4448 4451 4452 4456 4463 4475 4477 4483 4486 4493 4495
        4497 4498 4500 4501 4508 4509 4511 4512 4513 4514 4516 4520 4523
        4524 4525 4528 4529 4531 4532 4533 4537 4538 4539 4540 4543 4548
        4562 4568 4569 4571 4572 4574 4598 4599 4604 4606 4608 4611 4612
        4616 4617 4618 4624 4625 4626 4645 4648 4653 4654 4658 4663 4664
        4665 4666 4671 4680 4682 4687 4689 4691 4694 4695 4696 4698 4704
        4705 4708 4709 4710 4711 4712 4713 4718 4722 4723 4724 4725 4727
        4729 4731 4732 4733 4734 4735 4736 4738 4745 4746 4750 4757 4758
        4766 4776 4779 4781 4784 4787 4794 4795 4800 4801 4806 4808 4809
        4816 4824 4825 4829 4831 4832 4833 4835 4836 4841 4848 4851 4854
        4856 4857 4860 4864 4867 4868 4870 4871 4872 4874 4876 4877 4879
        4881 4882 4884 4885 4886 4887 4888 4890 4891 4892 4893 4898 4904
        4907 4908 4911 4922 4923 4938 4944 4945 4954 4957 4959 4960 4968
        4974 4985 4986 4991 4999 5002 5004 5007 5008 5010 5018 5019 5035
        5036 5037 5042 5055 5059 5062 5063 5065 5066 5067 5073 5075 5088
        5100 5101 5106 5108 5111 5114 5125 5130 5132 5133 5134 5135 5141
        5142 5143 5144 5146 5147 5148 5152 5153 5154 5167 5168 5177 5190
        5206 5209 5211 5212 5218 5222 5227 5249 5251 5256 5257 5263 5267
        5271 5272 5273 5280 5281 5287 5291 5292 5298 5300 5301 5302 5306
        5307 5312 5313 5317 5376 5382 5384 5387 5389 5390 5392 5393 5403
        5420 5426 5438 5439 5443 5473 5475 5479 5480 5481 5506 5507 5512
        5514 5516 5521 5523 5524 5526 5531 5532 5535 5538 5544 5546 5548
        5549 5555 5559 5564 5565 5566 5567 5571 5578 5583 5584 5585 5586
        5587 5589 5608 5609 5610 5611 5620 5621 5622 5632 5634 5643 5646
        5647 5648 5660 5661 5662 5663 5666 5681 5685 5687 5688 5689 5691
        5692 5693 5705 5708 5717 5720 5724 5726 5727 5735 5742 5747 5749
        5751 5753 5755 5773 5788 5789 5794 5795 5797 5798 5801 5802 5803
        5808 5810 5814 5817 5824 5829 5832 5834 5835 5837 5842 5844 5848
        5849 5853 5861 5874 5904 5907 5916 5924 5931 5936 5945 5946 5947
        5953 5954 5955 5956 5957 5958 5965 5969 5970 5973 5977 5978 5983
        5987 5988 5989 5992 5993 5997 5999 6000 6001 6002 6004 6005 6007
        6008 6012 6014 6025 6028 6033 6035 6041 6042 6051 6057 6058 6060
        6062 6069 6070 6082 6092 6094 6095 6106 6111 6120 6122 6123 6131
        6152 6155 6161 6164 6168 6170 6182 6184 6185 6188 6191 6192 6194
        6195 6198 6206 6209 6211 6212 6220 6221 6222 6223 6226 6238 6239
        6240 6257 6265 6266 6276 6280 6281 6282 6292 6293 6337 6341 6344
        6364 6365 6377 6385 6387 6394 6396 6397 6403 6406 6412 6425 6428
        6434 6448 6454 6455 6461 6463 6471 6472 6476 6478 6485 6486 6487
        6488 6489 6510 6525 6528 6531 6535 6538 6540 6541 6543 6544 6546
        6547 6548 6550 6556 6561 6562 6566 6567 6568 6578 6601 6604 6608
        6609 6623 6631 6633 6638 6656 6659 6676 6697 6698 6701 6704 6705
        6712 6713 6715 6719 6720 6722 6723 6725 6741 6742 6743 6744 6745
        6750 6752 6760 6767 6778 6779 6784 6785 6786 6793 6795 6796 6802
        6805 6808 6809 6814 6818 6844 6848 6849 6850 6865 6866 6867 6868
        6890 6893 6894 6895 6897 6902 6932 6939 6955 6960 6961 6966 6970
        6974 6977 6978 6981 6985 6986 6997 7003 7012 7015 7017 7023 7024
        7025 7026 7027 7028 7032 7035 7041 7042 7044 7049 7050 7058 7066
        7078 7087 7096 7097 7098 7099 7100 7101 7102 7111 7113 7114 7124
        7130 7133 7134 7140 7141 7145 7147 7150 7163 7164 7165 7166 7197
        7198 7202 7207 7250 7260 7292 7312 7315 7324 7349 7350 7353 7357
        7358 7361 7365 7367 7371 7383 7390 7396 7400 7401 7402 7404 7405
        7410 7412 7413 7414 7415 7434 7436 7438 7439 7440 7441 7442 7461
        7463 7465 7470 7472 7473 7479 7483 7485 7488 7491 7492 7497 7504
        7509 7510 7516 7532 7533 7545 7546 7547 7548 7549 7558 7568 7585
        7590 7600 7601 7607 7617 7618 7624 7635 7636 7643 7651 7654 7655
        7666 7667 7668 7679 7680 7697 7698 7699 7701 7728 7737 7738 7739
        7754 7763 7766 7767 7772 7786 7787 7788 7793 7794 7797 7798 7804
        7809 7811 7812 7832 7833 7836 7839 7840 7867 7868 7879 7882 7885
        7887 7888 7889 7890 7891 7892 7893 7905 7907 7955 7960 7962 7963
        7975 7981 7984 7986 7992 7994 7997 8002 8007 8016 8020 8025 8027
        8030 8032 8033 8035 8038 8039 8041 8067 8074 8102 8107 8111 8112
        8115 8120 8121 8123 8124 8127 8135 8144 8157 8159 8181 8182 8184
        8185 8189 8194 8203 8209 8211 8224 8228 8238 8267 8269 8270 8321
        8325 8340 8353 8375 8376 8377 8380 8393 8394 8396 8397 8408 8409
        8410 8412 8413 8414 8420 8423 8424 8432 8433 8434 8458 8459 8462
        8470 8473 8479 8480 8508 8517 8531 8532 8533 8535 8541 8544 8545
        8546 8550 8551 8566 8575 8602 8606 8607 8620 8621 8622 8627 8645
        8652 8665 8677 8678 8679 8703 8705 8706 8709 8724 8728 8734 8735
        8736 8738 8741 8744 8745 8746 8765 8766 8773 8775 8777 8778 8781
        8802 8803 8804 8805 8806 8809 8810 8811 8814 8815 8826 8828 8829
        8830 8832 8853 8856 8858 8861 8862 8864 8865 8867 8881 8884 8895
        8897 8909 8910 8920 8921 8922 8923 8935 8936 8941 8942 8943 8945
        8946 8948 8949 8956 8957 8958 8960 8963 8966 8977 8978 8983 8984
        8986 8987 8988 8989 8991 8992 8994 8998 9005 9006 9007 9009 9013
        9017 9022 9026 9027 9028 9030 9035 9047 9070 9089 9098 9102 9103
        9106 9117 9127 9128 9129 9131 9132 9135 9149 9150 9151 9153 9154
        9159 9161 9162 9163 9167 9168 9169 9171 9174 9176 9189 9190 9196
        9200 9201 9207 9208 9210 9212 9214 9226 9229 9234 9235 9252 9254
        9258 9293 9294 9297 9298 9301 9307 9320 9336 9340 9353 9356 9357
        9358 9359 9360 9368 9369 9370 9371 9372 9373 9374 9392 9393 9401
        9402 9417 9420 9428 9429 9437 9438 9439 9440 9441 9442 9445 9446
        9463 9465 9474 9477 9478 9491 9494 9501 9502 9510 9516 9531 9532
        9547 9549 9554 9556 9557 9558 9559 9560 9564 9580 9586 9587 9591
        9592 9593 9594 9596 9598 9599 9600 9601 9602 9603 9619 9620 9621
        9622 9623 9635 9648 9651 9652 9654 9655 9656 9657 9665 9667 9668
        9669 9671 9693 9694 9695 9696 9697 9699 9700 9701 9702 9706 9707
        9708 9717 9729 9731 9733 9734 9736 9740 9741 9771 9772 9773 9783
        9794 9806 9817 9832 9833 9844 9858 9865 9899 9911 9912 9915 9916
        9952 9982 9983 9984 9987 9989 9992 9993

    BC-SET-2:
      instance name: PART-1-1
      number of elements: 2481
      elements: 
        15 32 33 36 37 40 42 43 44 45 47 49 53 55 61 63 64 84 85 86 89
        94 98 100 102 103 104 111 112 114 119 121 126 157 160 162 163
        164 166 173 180 181 190 201 202 204 208 211 216 217 225 226 227
        228 229 230 231 232 233 234 235 236 237 245 246 247 248 249 252
        253 254 255 256 258 259 263 266 267 268 271 273 274 275 276 291
        292 293 294 298 299 304 307 309 310 312 318 319 320 322 324 325
        327 329 330 331 332 350 352 353 354 355 357 359 360 361 364 368
        369 375 376 380 382 389 397 398 400 403 404 405 407 410 411 412
        413 414 421 422 423 425 427 429 431 432 433 435 439 441 442 445
        446 448 454 456 461 474 475 478 479 480 481 483 484 486 487 488
        490 491 492 494 495 497 517 518 519 521 523 528 542 551 560 561
        570 573 576 577 578 579 580 581 582 585 586 587 588 596 597 612
        615 616 617 619 623 625 630 632 634 635 636 645 646 648 649 653
        656 658 659 661 663 666 670 676 686 703 707 711 712 714 715 721
        726 733 736 737 742 746 749 752 755 765 776 777 780 781 784 786
        787 789 790 793 795 797 803 812 816 817 818 821 832 836 839 840
        841 848 850 852 856 867 875 876 877 878 879 880 881 882 883 887
        894 896 904 905 915 924 925 929 930 931 933 934 935 937 938 939
        940 941 943 944 945 947 949 950 956 957 960 961 962 963 967 976
        981 982 984 987 988 991 992 993 994 996 1001 1004 1005 1008 1009
        1010 1016 1018 1020 1021 1025 1027 1038 1039 1040 1045 1052 1054
        1055 1056 1057 1058 1062 1066 1079 1086 1090 1091 1092 1097 1098
        1099 1100 1101 1102 1105 1111 1112 1113 1120 1122 1123 1124 1125
        1126 1128 1129 1130 1132 1135 1137 1138 1141 1147 1148 1156 1157
        1160 1162 1163 1172 1177 1178 1182 1185 1186 1189 1190 1194 1196
        1201 1207 1210 1214 1215 1216 1217 1221 1226 1227 1230 1236 1238
        1239 1258 1260 1280 1281 1282 1283 1285 1287 1289 1290 1295 1296
        1297 1298 1299 1305 1313 1314 1324 1325 1339 1342 1346 1347 1352
        1353 1355 1358 1361 1362 1363 1370 1374 1375 1376 1381 1383 1385
        1390 1393 1394 1395 1396 1403 1407 1409 1411 1416 1417 1425 1428
        1429 1434 1435 1436 1437 1439 1440 1441 1442 1445 1450 1454 1455
        1458 1463 1464 1471 1473 1479 1486 1488 1495 1496 1502 1503 1505
        1507 1508 1510 1511 1514 1516 1529 1531 1533 1536 1544 1545 1550
        1554 1558 1560 1566 1570 1578 1579 1580 1581 1582 1587 1589 1590
        1591 1593 1595 1596 1601 1610 1615 1617 1620 1623 1624 1629 1634
        1635 1642 1643 1645 1646 1649 1650 1651 1653 1654 1658 1674 1675
        1676 1679 1680 1683 1684 1687 1690 1691 1692 1694 1699 1707 1708
        1710 1711 1717 1719 1724 1727 1729 1738 1739 1740 1753 1756 1757
        1760 1782 1787 1789 1790 1794 1796 1797 1798 1799 1800 1802 1808
        1809 1811 1817 1819 1820 1837 1838 1839 1840 1841 1845 1846 1848
        1849 1850 1851 1855 1861 1864 1867 1869 1870 1873 1874 1878 1879
        1881 1882 1884 1885 1886 1887 1889 1890 1891 1893 1894 1896 1897
        1898 1900 1901 1902 1904 1905 1906 1907 1908 1909 1910 1912 1915
        1921 1923 1924 1925 1926 1927 1928 1932 1936 1938 1939 1941 1942
        1943 1946 1947 1951 1957 1963 1964 1965 1966 1969 1970 1972 1974
        1976 1977 1978 1981 1982 1984 1985 1988 1998 2001 2002 2006 2018
        2021 2023 2030 2031 2032 2033 2036 2037 2038 2041 2042 2045 2046
        2047 2049 2052 2057 2058 2063 2064 2065 2077 2079 2080 2083 2085
        2088 2095 2100 2103 2111 2116 2119 2120 2121 2122 2123 2129 2130
        2132 2137 2140 2142 2143 2144 2146 2147 2148 2150 2151 2152 2153
        2154 2158 2172 2177 2183 2184 2189 2190 2193 2199 2202 2206 2211
        2214 2215 2220 2232 2234 2235 2237 2239 2241 2242 2243 2255 2256
        2260 2266 2268 2272 2274 2283 2295 2296 2312 2324 2325 2326 2327
        2328 2335 2337 2338 2344 2350 2355 2357 2359 2365 2366 2369 2370
        2372 2376 2377 2379 2380 2381 2384 2385 2386 2388 2389 2391 2395
        2396 2397 2398 2399 2402 2419 2421 2422 2423 2424 2426 2430 2433
        2434 2438 2440 2446 2452 2454 2456 2457 2458 2459 2460 2465 2467
        2471 2474 2476 2479 2481 2483 2484 2485 2487 2488 2489 2492 2493
        2494 2497 2498 2499 2500 2509 2520 2530 2538 2542 2544 2545 2548
        2556 2560 2561 2572 2575 2583 2584 2585 2586 2587 2588 2590 2591
        2593 2599 2603 2604 2605 2607 2609 2610 2612 2613 2618 2619 2620
        2623 2628 2635 2636 2638 2643 2644 2648 2649 2651 2652 2674 2684
        2685 2691 2693 2696 2697 2698 2708 2710 2713 2715 2716 2717 2724
        2728 2737 2739 2741 2742 2745 2746 2749 2751 2757 2777 2787 2788
        2790 2807 2811 2812 2813 2816 2830 2832 2833 2836 2837 2846 2848
        2849 2852 2854 2856 2858 2859 2867 2868 2872 2873 2875 2881 2897
        2905 2906 2908 2912 2915 2916 2919 2920 2921 2922 2923 2932 2935
        2937 2940 2944 2945 2947 2949 2952 2953 2954 2956 2957 2958 2959
        2960 2961 2963 2965 2968 2969 2971 2972 2974 2975 2976 2977 2990
        2994 2996 2999 3004 3005 3007 3009 3011 3012 3017 3019 3021 3022
        3023 3028 3034 3037 3043 3046 3048 3049 3050 3058 3062 3066 3067
        3072 3075 3076 3077 3086 3092 3094 3105 3107 3118 3122 3134 3135
        3136 3139 3140 3145 3150 3153 3154 3157 3159 3160 3161 3164 3169
        3187 3192 3197 3199 3204 3208 3210 3211 3216 3217 3218 3220 3225
        3226 3230 3231 3233 3243 3253 3254 3255 3257 3258 3264 3268 3269
        3270 3273 3275 3276 3277 3278 3292 3296 3324 3325 3326 3346 3348
        3350 3353 3358 3359 3360 3361 3362 3363 3364 3367 3369 3372 3374
        3375 3378 3382 3387 3388 3407 3408 3409 3412 3413 3414 3420 3435
        3438 3439 3441 3442 3445 3448 3451 3454 3465 3478 3481 3482 3498
        3501 3506 3511 3514 3515 3521 3522 3523 3525 3534 3536 3544 3561
        3564 3565 3569 3572 3576 3577 3578 3582 3584 3593 3594 3602 3603
        3605 3607 3610 3613 3616 3618 3620 3621 3622 3623 3627 3629 3631
        3633 3634 3643 3652 3653 3666 3680 3681 3685 3688 3689 3699 3701
        3707 3708 3709 3712 3714 3720 3724 3729 3730 3732 3737 3740 3743
        3747 3749 3751 3766 3770 3773 3774 3779 3790 3793 3794 3800 3801
        3804 3811 3812 3816 3818 3819 3821 3839 3841 3842 3846 3848 3854
        3855 3856 3860 3876 3883 3893 3894 3895 3901 3902 3910 3912 3916
        3918 3929 3930 3936 3942 3945 3946 3947 3949 3950 3953 3956 3960
        3962 3963 3966 3967 3971 3973 3977 3990 3991 3996 3998 4012 4013
        4014 4017 4022 4023 4028 4030 4033 4034 4035 4037 4038 4041 4051
        4057 4058 4066 4068 4070 4074 4082 4089 4090 4093 4095 4096 4100
        4110 4115 4124 4130 4135 4136 4139 4141 4146 4150 4154 4155 4164
        4168 4170 4177 4181 4183 4188 4190 4191 4192 4194 4195 4198 4205
        4207 4209 4213 4227 4231 4239 4241 4244 4250 4251 4252 4255 4259
        4266 4267 4268 4269 4287 4289 4292 4297 4299 4300 4301 4307 4308
        4309 4310 4314 4319 4320 4321 4323 4324 4329 4342 4350 4353 4355
        4356 4362 4365 4369 4370 4377 4389 4391 4394 4395 4397 4400 4401
        4403 4406 4407 4408 4409 4411 4413 4417 4419 4421 4423 4425 4436
        4441 4443 4462 4478 4482 4494 4503 4522 4526 4527 4535 4541 4545
        4546 4547 4549 4551 4554 4555 4558 4559 4580 4581 4585 4586 4588
        4595 4597 4601 4602 4603 4613 4615 4621 4631 4636 4640 4641 4643
        4644 4655 4657 4659 4660 4662 4669 4670 4675 4676 4681 4684 4686
        4690 4699 4701 4702 4703 4714 4716 4720 4748 4751 4752 4753 4764
        4773 4775 4777 4778 4780 4783 4785 4786 4790 4791 4799 4805 4807
        4812 4826 4838 4842 4844 4853 4878 4896 4897 4901 4912 4913 4915
        4916 4919 4920 4924 4926 4929 4931 4934 4935 4936 4941 4946 4962
        4963 4965 4966 4967 4969 4970 4971 4973 4975 4976 4978 4982 4983
        4984 5001 5005 5006 5009 5017 5021 5024 5029 5039 5046 5047 5048
        5049 5050 5053 5056 5058 5060 5070 5071 5080 5084 5091 5092 5093
        5094 5095 5096 5097 5098 5099 5102 5103 5104 5105 5107 5109 5117
        5118 5119 5120 5123 5124 5128 5136 5137 5138 5139 5145 5161 5166
        5170 5180 5186 5191 5196 5197 5198 5199 5200 5201 5221 5225 5235
        5236 5239 5241 5242 5243 5245 5258 5259 5260 5268 5284 5295 5303
        5304 5305 5314 5315 5319 5324 5330 5331 5333 5334 5343 5354 5359
        5360 5364 5367 5368 5369 5370 5371 5378 5379 5380 5388 5404 5411
        5424 5451 5452 5453 5454 5455 5456 5457 5458 5459 5460 5461 5462
        5463 5464 5465 5484 5486 5487 5490 5494 5496 5497 5498 5500 5501
        5502 5503 5504 5527 5528 5529 5530 5536 5541 5545 5551 5552 5556
        5558 5562 5563 5572 5590 5601 5602 5604 5606 5607 5613 5614 5615
        5624 5629 5639 5641 5642 5658 5659 5664 5672 5675 5676 5677 5680
        5690 5704 5707 5709 5710 5712 5715 5716 5721 5722 5723 5729 5730
        5748 5759 5760 5763 5765 5766 5767 5768 5769 5770 5771 5772 5774
        5783 5785 5792 5796 5799 5800 5804 5806 5811 5812 5838 5839 5845
        5865 5868 5869 5871 5877 5882 5883 5884 5886 5887 5888 5889 5890
        5901 5909 5912 5914 5915 5917 5919 5928 5929 5933 5934 5935 5938
        5939 5950 5952 5966 5974 5975 5982 6006 6016 6021 6022 6026 6034
        6036 6046 6049 6055 6059 6061 6063 6064 6065 6066 6068 6073 6074
        6075 6079 6080 6084 6086 6088 6091 6101 6103 6107 6114 6115 6116
        6121 6124 6125 6126 6130 6132 6133 6134 6136 6137 6138 6139 6140
        6141 6145 6158 6163 6167 6169 6172 6173 6174 6175 6177 6178 6189
        6190 6210 6225 6231 6232 6235 6236 6237 6243 6244 6256 6269 6270
        6277 6285 6291 6295 6301 6302 6303 6304 6313 6314 6316 6318 6319
        6335 6346 6354 6368 6374 6375 6378 6381 6382 6383 6390 6393 6399
        6402 6405 6407 6409 6414 6422 6429 6431 6435 6436 6438 6446 6453
        6460 6462 6467 6482 6483 6494 6495 6506 6508 6534 6536 6537 6542
        6549 6551 6552 6560 6571 6577 6595 6600 6606 6612 6620 6632 6634
        6641 6652 6653 6654 6655 6658 6662 6664 6666 6671 6680 6683 6724
        6732 6751 6759 6766 6768 6769 6775 6776 6777 6780 6783 6794 6798
        6803 6804 6821 6829 6831 6837 6840 6841 6842 6845 6861 6862 6871
        6874 6875 6876 6891 6892 6903 6904 6913 6916 6924 6925 6926 6927
        6935 6944 6947 6950 6951 6952 6959 6967 6968 6972 6980 6987 6988
        6990 6993 6996 6998 7004 7005 7006 7016 7018 7019 7021 7029 7030
        7034 7048 7056 7064 7065 7067 7073 7074 7080 7086 7090 7107 7109
        7116 7117 7131 7139 7153 7162 7167 7170 7171 7180 7181 7187 7206
        7210 7217 7218 7219 7220 7222 7226 7227 7228 7229 7231 7232 7233
        7234 7247 7249 7259 7264 7269 7273 7280 7283 7285 7288 7294 7298
        7300 7302 7303 7304 7306 7308 7316 7328 7329 7330 7331 7332 7333
        7341 7345 7352 7370 7372 7375 7376 7398 7418 7429 7431 7446 7447
        7448 7460 7467 7468 7471 7477 7484 7523 7537 7539 7543 7562 7571
        7580 7583 7584 7588 7592 7595 7597 7604 7605 7608 7640 7642 7656
        7659 7661 7663 7664 7675 7686 7687 7688 7709 7711 7716 7717 7722
        7729 7730 7731 7752 7753 7755 7777 7779 7781 7790 7799 7800 7813
        7826 7829 7846 7860 7864 7877 7878 7884 7886 7906 7915 7925 7926
        7930 7948 7953 7968 7969 7974 7982 7988 7989 7990 7991 8000 8012
        8014 8015 8017 8018 8022 8042 8044 8045 8046 8057 8058 8060 8062
        8065 8066 8079 8080 8085 8088 8089 8098 8101 8106 8113 8114 8125
        8134 8146 8147 8149 8151 8154 8158 8161 8162 8169 8171 8173 8174
        8175 8176 8179 8180 8183 8186 8205 8208 8210 8213 8215 8233 8236
        8247 8248 8251 8253 8264 8271 8274 8276 8277 8279 8282 8283 8285
        8286 8287 8288 8291 8292 8293 8308 8309 8310 8311 8314 8327 8337
        8338 8339 8346 8348 8349 8350 8354 8356 8359 8360 8365 8366 8368
        8369 8374 8381 8383 8387 8405 8406 8421 8447 8448 8449 8450 8456
        8457 8467 8468 8469 8477 8478 8481 8482 8483 8484 8485 8489 8490
        8491 8492 8497 8509 8511 8518 8522 8523 8525 8526 8527 8528 8529
        8530 8537 8540 8542 8543 8561 8562 8584 8586 8590 8591 8603 8605
        8614 8615 8626 8628 8629 8633 8634 8635 8636 8637 8653 8658 8666
        8667 8672 8673 8680 8684 8685 8689 8691 8696 8700 8701 8708 8710
        8713 8714 8715 8732 8733 8742 8747 8748 8749 8750 8751 8752 8753
        8754 8755 8756 8760 8764 8767 8768 8769 8772 8774 8782 8786 8787
        8799 8800 8801 8813 8817 8818 8821 8822 8845 8852 8854 8860 8868
        8869 8882 8883 8886 8887 8888 8889 8890 8891 8896 8905 8906 8907
        8908 8913 8914 8915 8961 8964 8969 8993 8995 8996 9001 9012 9014
        9015 9016 9018 9020 9025 9038 9040 9041 9042 9044 9045 9048 9049
        9050 9052 9056 9058 9059 9060 9067 9068 9074 9079 9088 9091 9094
        9104 9115 9121 9122 9136 9137 9165 9166 9177 9178 9179 9181 9183
        9184 9185 9203 9204 9211 9213 9223 9224 9225 9241 9243 9246 9247
        9249 9250 9251 9253 9257 9260 9261 9262 9263 9265 9266 9267 9268
        9269 9270 9271 9272 9273 9285 9286 9288 9305 9306 9309 9311 9312
        9315 9322 9327 9328 9333 9341 9347 9348 9349 9350 9362 9365 9376
        9377 9378 9380 9383 9384 9386 9387 9388 9394 9395 9396 9399 9400
        9404 9408 9418 9419 9423 9424 9425 9457 9458 9459 9460 9468 9469
        9471 9473 9476 9479 9480 9484 9487 9518 9525 9526 9527 9528 9529
        9530 9541 9544 9546 9548 9555 9573 9574 9575 9583 9585 9604 9605
        9606 9607 9636 9637 9643 9644 9646 9679 9680 9705 9720 9725 9730
        9742 9746 9755 9756 9762 9763 9766 9789 9795 9805 9807 9809 9810
        9812 9827 9828 9829 9831 9845 9859 9861 9895 9909 9913 9981

  Surfaces:

INSTANCE LEVEL
  node sets:
    Instance name: PART-1-1
      node set name: SET-1
        number of nodes: 2610
        nodes: 
          1 2 3 4 5 6 7 8 9 10 11 12 13 14 15 16 17 18 19 20 21 22 23 24
          25 26 27 28 29 30 31 32 33 34 35 36 37 38 39 40 41 42 43 44 45
          46 47 48 49 50 51 52 53 54 55 56 57 58 59 60 61 62 63 64 65 66
          67 68 69 70 71 72 73 74 75 76 77 78 79 80 81 82 83 84 85 86 87
          88 89 90 91 92 93 94 95 96 97 98 99 100 101 102 103 104 105
          106 107 108 109 110 111 112 113 114 115 116 117 118 119 120
          121 122 123 124 125 126 127 128 129 130 131 132 133 134 135
          136 137 138 139 140 141 142 143 144 145 146 147 148 149 150
          151 152 153 154 155 156 157 158 159 160 161 162 163 164 165
          166 167 168 169 170 171 172 173 174 175 176 177 178 179 180
          181 182 183 184 185 186 187 188 189 190 191 192 193 194 195
          196 197 198 199 200 201 202 203 204 205 206 207 208 209 210
          211 212 213 214 215 216 217 218 219 220 221 222 223 224 225
          226 227 228 229 230 231 232 233 234 235 236 237 238 239 240
          241 242 243 244 245 246 247 248 249 250 251 252 253 254 255
          256 257 258 259 260 261 262 263 264 265 266 267 268 269 270
          271 272 273 274 275 276 277 278 279 280 281 282 283 284 285
          286 287 288 289 290 291 292 293 294 295 296 297 298 299 300
          301 302 303 304 305 306 307 308 309 310 311 312 313 314 315
          316 317 318 319 320 321 322 323 324 325 326 327 328 329 330
          331 332 333 334 335 336 337 338 339 340 341 342 343 344 345
          346 347 348 349 350 351 352 353 354 355 356 357 358 359 360
          361 362 363 364 365 366 367 368 369 370 371 372 373 374 375
          376 377 378 379 380 381 382 383 384 385 386 387 388 389 390
          391 392 393 394 395 396 397 398 399 400 401 402 403 404 405
          406 407 408 409 410 411 412 413 414 415 416 417 418 419 420
          421 422 423 424 425 426 427 428 429 430 431 432 433 434 435
          436 437 438 439 440 441 442 443 444 445 446 447 448 449 450
          451 452 453 454 455 456 457 458 459 460 461 462 463 464 465
          466 467 468 469 470 471 472 473 474 475 476 477 478 479 480
          481 482 483 484 485 486 487 488 489 490 491 492 493 494 495
          496 497 498 499 500 501 502 503 504 505 506 507 508 509 510
          511 512 513 514 515 516 517 518 519 520 521 522 523 524 525
          526 527 528 529 530 531 532 533 534 535 536 537 538 539 540
          541 542 543 544 545 546 547 548 549 550 551 552 553 554 555
          556 557 558 559 560 561 562 563 564 565 566 567 568 569 570
          571 572 573 574 575 576 577 578 579 580 581 582 583 584 585
          586 587 588 589 590 591 592 593 594 595 596 597 598 599 600
          601 602 603 604 605 606 607 608 609 610 611 612 613 614 615
          616 617 618 619 620 621 622 623 624 625 626 627 628 629 630
          631 632 633 634 635 636 637 638 639 640 641 642 643 644 645
          646 647 648 649 650 651 652 653 654 655 656 657 658 659 660
          661 662 663 664 665 666 667 668 669 670 671 672 673 674 675
          676 677 678 679 680 681 682 683 684 685 686 687 688 689 690
          691 692 693 694 695 696 697 698 699 700 701 702 703 704 705
          706 707 708 709 710 711 712 713 714 715 716 717 718 719 720
          721 722 723 724 725 726 727 728 729 730 731 732 733 734 735
          736 737 738 739 740 741 742 743 744 745 746 747 748 749 750
          751 752 753 754 755 756 757 758 759 760 761 762 763 764 765
          766 767 768 769 770 771 772 773 774 775 776 777 778 779 780
          781 782 783 784 785 786 787 788 789 790 791 792 793 794 795
          796 797 798 799 800 801 802 803 804 805 806 807 808 809 810
          811 812 813 814 815 816 817 818 819 820 821 822 823 824 825
          826 827 828 829 830 831 832 833 834 835 836 837 838 839 840
          841 842 843 844 845 846 847 848 849 850 851 852 853 854 855
          856 857 858 859 860 861 862 863 864 865 866 867 868 869 870
          871 872 873 874 875 876 877 878 879 880 881 882 883 884 885
          886 887 888 889 890 891 892 893 894 895 896 897 898 899 900
          901 902 903 904 905 906 907 908 909 910 911 912 913 914 915
          916 917 918 919 920 921 922 923 924 925 926 927 928 929 930
          931 932 933 934 935 936 937 938 939 940 941 942 943 944 945
          946 947 948 949 950 951 952 953 954 955 956 957 958 959 960
          961 962 963 964 965 966 967 968 969 970 971 972 973 974 975
          976 977 978 979 980 981 982 983 984 985 986 987 988 989 990
          991 992 993 994 995 996 997 998 999 1000 1001 1002 1003 1004
          1005 1006 1007 1008 1009 1010 1011 1012 1013 1014 1015 1016
          1017 1018 1019 1020 1021 1022 1023 1024 1025 1026 1027 1028
          1029 1030 1031 1032 1033 1034 1035 1036 1037 1038 1039 1040
          1041 1042 1043 1044 1045 1046 1047 1048 1049 1050 1051 1052
          1053 1054 1055 1056 1057 1058 1059 1060 1061 1062 1063 1064
          1065 1066 1067 1068 1069 1070 1071 1072 1073 1074 1075 1076
          1077 1078 1079 1080 1081 1082 1083 1084 1085 1086 1087 1088
          1089 1090 1091 1092 1093 1094 1095 1096 1097 1098 1099 1100
          1101 1102 1103 1104 1105 1106 1107 1108 1109 1110 1111 1112
          1113 1114 1115 1116 1117 1118 1119 1120 1121 1122 1123 1124
          1125 1126 1127 1128 1129 1130 1131 1132 1133 1134 1135 1136
          1137 1138 1139 1140 1141 1142 1143 1144 1145 1146 1147 1148
          1149 1150 1151 1152 1153 1154 1155 1156 1157 1158 1159 1160
          1161 1162 1163 1164 1165 1166 1167 1168 1169 1170 1171 1172
          1173 1174 1175 1176 1177 1178 1179 1180 1181 1182 1183 1184
          1185 1186 1187 1188 1189 1190 1191 1192 1193 1194 1195 1196
          1197 1198 1199 1200 1201 1202 1203 1204 1205 1206 1207 1208
          1209 1210 1211 1212 1213 1214 1215 1216 1217 1218 1219 1220
          1221 1222 1223 1224 1225 1226 1227 1228 1229 1230 1231 1232
          1233 1234 1235 1236 1237 1238 1239 1240 1241 1242 1243 1244
          1245 1246 1247 1248 1249 1250 1251 1252 1253 1254 1255 1256
          1257 1258 1259 1260 1261 1262 1263 1264 1265 1266 1267 1268
          1269 1270 1271 1272 1273 1274 1275 1276 1277 1278 1279 1280
          1281 1282 1283 1284 1285 1286 1287 1288 1289 1290 1291 1292
          1293 1294 1295 1296 1297 1298 1299 1300 1301 1302 1303 1304
          1305 1306 1307 1308 1309 1310 1311 1312 1313 1314 1315 1316
          1317 1318 1319 1320 1321 1322 1323 1324 1325 1326 1327 1328
          1329 1330 1331 1332 1333 1334 1335 1336 1337 1338 1339 1340
          1341 1342 1343 1344 1345 1346 1347 1348 1349 1350 1351 1352
          1353 1354 1355 1356 1357 1358 1359 1360 1361 1362 1363 1364
          1365 1366 1367 1368 1369 1370 1371 1372 1373 1374 1375 1376
          1377 1378 1379 1380 1381 1382 1383 1384 1385 1386 1387 1388
          1389 1390 1391 1392 1393 1394 1395 1396 1397 1398 1399 1400
          1401 1402 1403 1404 1405 1406 1407 1408 1409 1410 1411 1412
          1413 1414 1415 1416 1417 1418 1419 1420 1421 1422 1423 1424
          1425 1426 1427 1428 1429 1430 1431 1432 1433 1434 1435 1436
          1437 1438 1439 1440 1441 1442 1443 1444 1445 1446 1447 1448
          1449 1450 1451 1452 1453 1454 1455 1456 1457 1458 1459 1460
          1461 1462 1463 1464 1465 1466 1467 1468 1469 1470 1471 1472
          1473 1474 1475 1476 1477 1478 1479 1480 1481 1482 1483 1484
          1485 1486 1487 1488 1489 1490 1491 1492 1493 1494 1495 1496
          1497 1498 1499 1500 1501 1502 1503 1504 1505 1506 1507 1508
          1509 1510 1511 1512 1513 1514 1515 1516 1517 1518 1519 1520
          1521 1522 1523 1524 1525 1526 1527 1528 1529 1530 1531 1532
          1533 1534 1535 1536 1537 1538 1539 1540 1541 1542 1543 1544
          1545 1546 1547 1548 1549 1550 1551 1552 1553 1554 1555 1556
          1557 1558 1559 1560 1561 1562 1563 1564 1565 1566 1567 1568
          1569 1570 1571 1572 1573 1574 1575 1576 1577 1578 1579 1580
          1581 1582 1583 1584 1585 1586 1587 1588 1589 1590 1591 1592
          1593 1594 1595 1596 1597 1598 1599 1600 1601 1602 1603 1604
          1605 1606 1607 1608 1609 1610 1611 1612 1613 1614 1615 1616
          1617 1618 1619 1620 1621 1622 1623 1624 1625 1626 1627 1628
          1629 1630 1631 1632 1633 1634 1635 1636 1637 1638 1639 1640
          1641 1642 1643 1644 1645 1646 1647 1648 1649 1650 1651 1652
          1653 1654 1655 1656 1657 1658 1659 1660 1661 1662 1663 1664
          1665 1666 1667 1668 1669 1670 1671 1672 1673 1674 1675 1676
          1677 1678 1679 1680 1681 1682 1683 1684 1685 1686 1687 1688
          1689 1690 1691 1692 1693 1694 1695 1696 1697 1698 1699 1700
          1701 1702 1703 1704 1705 1706 1707 1708 1709 1710 1711 1712
          1713 1714 1715 1716 1717 1718 1719 1720 1721 1722 1723 1724
          1725 1726 1727 1728 1729 1730 1731 1732 1733 1734 1735 1736
          1737 1738 1739 1740 1741 1742 1743 1744 1745 1746 1747 1748
          1749 1750 1751 1752 1753 1754 1755 1756 1757 1758 1759 1760
          1761 1762 1763 1764 1765 1766 1767 1768 1769 1770 1771 1772
          1773 1774 1775 1776 1777 1778 1779 1780 1781 1782 1783 1784
          1785 1786 1787 1788 1789 1790 1791 1792 1793 1794 1795 1796
          1797 1798 1799 1800 1801 1802 1803 1804 1805 1806 1807 1808
          1809 1810 1811 1812 1813 1814 1815 1816 1817 1818 1819 1820
          1821 1822 1823 1824 1825 1826 1827 1828 1829 1830 1831 1832
          1833 1834 1835 1836 1837 1838 1839 1840 1841 1842 1843 1844
          1845 1846 1847 1848 1849 1850 1851 1852 1853 1854 1855 1856
          1857 1858 1859 1860 1861 1862 1863 1864 1865 1866 1867 1868
          1869 1870 1871 1872 1873 1874 1875 1876 1877 1878 1879 1880
          1881 1882 1883 1884 1885 1886 1887 1888 1889 1890 1891 1892
          1893 1894 1895 1896 1897 1898 1899 1900 1901 1902 1903 1904
          1905 1906 1907 1908 1909 1910 1911 1912 1913 1914 1915 1916
          1917 1918 1919 1920 1921 1922 1923 1924 1925 1926 1927 1928
          1929 1930 1931 1932 1933 1934 1935 1936 1937 1938 1939 1940
          1941 1942 1943 1944 1945 1946 1947 1948 1949 1950 1951 1952
          1953 1954 1955 1956 1957 1958 1959 1960 1961 1962 1963 1964
          1965 1966 1967 1968 1969 1970 1971 1972 1973 1974 1975 1976
          1977 1978 1979 1980 1981 1982 1983 1984 1985 1986 1987 1988
          1989 1990 1991 1992 1993 1994 1995 1996 1997 1998 1999 2000
          2001 2002 2003 2004 2005 2006 2007 2008 2009 2010 2011 2012
          2013 2014 2015 2016 2017 2018 2019 2020 2021 2022 2023 2024
          2025 2026 2027 2028 2029 2030 2031 2032 2033 2034 2035 2036
          2037 2038 2039 2040 2041 2042 2043 2044 2045 2046 2047 2048
          2049 2050 2051 2052 2053 2054 2055 2056 2057 2058 2059 2060
          2061 2062 2063 2064 2065 2066 2067 2068 2069 2070 2071 2072
          2073 2074 2075 2076 2077 2078 2079 2080 2081 2082 2083 2084
          2085 2086 2087 2088 2089 2090 2091 2092 2093 2094 2095 2096
          2097 2098 2099 2100 2101 2102 2103 2104 2105 2106 2107 2108
          2109 2110 2111 2112 2113 2114 2115 2116 2117 2118 2119 2120
          2121 2122 2123 2124 2125 2126 2127 2128 2129 2130 2131 2132
          2133 2134 2135 2136 2137 2138 2139 2140 2141 2142 2143 2144
          2145 2146 2147 2148 2149 2150 2151 2152 2153 2154 2155 2156
          2157 2158 2159 2160 2161 2162 2163 2164 2165 2166 2167 2168
          2169 2170 2171 2172 2173 2174 2175 2176 2177 2178 2179 2180
          2181 2182 2183 2184 2185 2186 2187 2188 2189 2190 2191 2192
          2193 2194 2195 2196 2197 2198 2199 2200 2201 2202 2203 2204
          2205 2206 2207 2208 2209 2210 2211 2212 2213 2214 2215 2216
          2217 2218 2219 2220 2221 2222 2223 2224 2225 2226 2227 2228
          2229 2230 2231 2232 2233 2234 2235 2236 2237 2238 2239 2240
          2241 2242 2243 2244 2245 2246 2247 2248 2249 2250 2251 2252
          2253 2254 2255 2256 2257 2258 2259 2260 2261 2262 2263 2264
          2265 2266 2267 2268 2269 2270 2271 2272 2273 2274 2275 2276
          2277 2278 2279 2280 2281 2282 2283 2284 2285 2286 2287 2288
          2289 2290 2291 2292 2293 2294 2295 2296 2297 2298 2299 2300
          2301 2302 2303 2304 2305 2306 2307 2308 2309 2310 2311 2312
          2313 2314 2315 2316 2317 2318 2319 2320 2321 2322 2323 2324
          2325 2326 2327 2328 2329 2330 2331 2332 2333 2334 2335 2336
          2337 2338 2339 2340 2341 2342 2343 2344 2345 2346 2347 2348
          2349 2350 2351 2352 2353 2354 2355 2356 2357 2358 2359 2360
          2361 2362 2363 2364 2365 2366 2367 2368 2369 2370 2371 2372
          2373 2374 2375 2376 2377 2378 2379 2380 2381 2382 2383 2384
          2385 2386 2387 2388 2389 2390 2391 2392 2393 2394 2395 2396
          2397 2398 2399 2400 2401 2402 2403 2404 2405 2406 2407 2408
          2409 2410 2411 2412 2413 2414 2415 2416 2417 2418 2419 2420
          2421 2422 2423 2424 2425 2426 2427 2428 2429 2430 2431 2432
          2433 2434 2435 2436 2437 2438 2439 2440 2441 2442 2443 2444
          2445 2446 2447 2448 2449 2450 2451 2452 2453 2454 2455 2456
          2457 2458 2459 2460 2461 2462 2463 2464 2465 2466 2467 2468
          2469 2470 2471 2472 2473 2474 2475 2476 2477 2478 2479 2480
          2481 2482 2483 2484 2485 2486 2487 2488 2489 2490 2491 2492
          2493 2494 2495 2496 2497 2498 2499 2500 2501 2502 2503 2504
          2505 2506 2507 2508 2509 2510 2511 2512 2513 2514 2515 2516
          2517 2518 2519 2520 2521 2522 2523 2524 2525 2526 2527 2528
          2529 2530 2531 2532 2533 2534 2535 2536 2537 2538 2539 2540
          2541 2542 2543 2544 2545 2546 2547 2548 2549 2550 2551 2552
          2553 2554 2555 2556 2557 2558 2559 2560 2561 2562 2563 2564
          2565 2566 2567 2568 2569 2570 2571 2572 2573 2574 2575 2576
          2577 2578 2579 2580 2581 2582 2583 2584 2585 2586 2587 2588
          2589 2590 2591 2592 2593 2594 2595 2596 2597 2598 2599 2600
          2601 2602 2603 2604 2605 2606 2607 2608 2609 2610

  element sets:
    Instance name: PART-1-1
      element set name: SET-1
        number of elements: 10006
        elements: 
          1 2 3 4 5 6 7 8 9 10 11 12 13 14 15 16 17 18 19 20 21 22 23 24
          25 26 27 28 29 30 31 32 33 34 35 36 37 38 39 40 41 42 43 44 45
          46 47 48 49 50 51 52 53 54 55 56 57 58 59 60 61 62 63 64 65 66
          67 68 69 70 71 72 73 74 75 76 77 78 79 80 81 82 83 84 85 86 87
          88 89 90 91 92 93 94 95 96 97 98 99 100 101 102 103 104 105
          106 107 108 109 110 111 112 113 114 115 116 117 118 119 120
          121 122 123 124 125 126 127 128 129 130 131 132 133 134 135
          136 137 138 139 140 141 142 143 144 145 146 147 148 149 150
          151 152 153 154 155 156 157 158 159 160 161 162 163 164 165
          166 167 168 169 170 171 172 173 174 175 176 177 178 179 180
          181 182 183 184 185 186 187 188 189 190 191 192 193 194 195
          196 197 198 199 200 201 202 203 204 205 206 207 208 209 210
          211 212 213 214 215 216 217 218 219 220 221 222 223 224 225
          226 227 228 229 230 231 232 233 234 235 236 237 238 239 240
          241 242 243 244 245 246 247 248 249 250 251 252 253 254 255
          256 257 258 259 260 261 262 263 264 265 266 267 268 269 270
          271 272 273 274 275 276 277 278 279 280 281 282 283 284 285
          286 287 288 289 290 291 292 293 294 295 296 297 298 299 300
          301 302 303 304 305 306 307 308 309 310 311 312 313 314 315
          316 317 318 319 320 321 322 323 324 325 326 327 328 329 330
          331 332 333 334 335 336 337 338 339 340 341 342 343 344 345
          346 347 348 349 350 351 352 353 354 355 356 357 358 359 360
          361 362 363 364 365 366 367 368 369 370 371 372 373 374 375
          376 377 378 379 380 381 382 383 384 385 386 387 388 389 390
          391 392 393 394 395 396 397 398 399 400 401 402 403 404 405
          406 407 408 409 410 411 412 413 414 415 416 417 418 419 420
          421 422 423 424 425 426 427 428 429 430 431 432 433 434 435
          436 437 438 439 440 441 442 443 444 445 446 447 448 449 450
          451 452 453 454 455 456 457 458 459 460 461 462 463 464 465
          466 467 468 469 470 471 472 473 474 475 476 477 478 479 480
          481 482 483 484 485 486 487 488 489 490 491 492 493 494 495
          496 497 498 499 500 501 502 503 504 505 506 507 508 509 510
          511 512 513 514 515 516 517 518 519 520 521 522 523 524 525
          526 527 528 529 530 531 532 533 534 535 536 537 538 539 540
          541 542 543 544 545 546 547 548 549 550 551 552 553 554 555
          556 557 558 559 560 561 562 563 564 565 566 567 568 569 570
          571 572 573 574 575 576 577 578 579 580 581 582 583 584 585
          586 587 588 589 590 591 592 593 594 595 596 597 598 599 600
          601 602 603 604 605 606 607 608 609 610 611 612 613 614 615
          616 617 618 619 620 621 622 623 624 625 626 627 628 629 630
          631 632 633 634 635 636 637 638 639 640 641 642 643 644 645
          646 647 648 649 650 651 652 653 654 655 656 657 658 659 660
          661 662 663 664 665 666 667 668 669 670 671 672 673 674 675
          676 677 678 679 680 681 682 683 684 685 686 687 688 689 690
          691 692 693 694 695 696 697 698 699 700 701 702 703 704 705
          706 707 708 709 710 711 712 713 714 715 716 717 718 719 720
          721 722 723 724 725 726 727 728 729 730 731 732 733 734 735
          736 737 738 739 740 741 742 743 744 745 746 747 748 749 750
          751 752 753 754 755 756 757 758 759 760 761 762 763 764 765
          766 767 768 769 770 771 772 773 774 775 776 777 778 779 780
          781 782 783 784 785 786 787 788 789 790 791 792 793 794 795
          796 797 798 799 800 801 802 803 804 805 806 807 808 809 810
          811 812 813 814 815 816 817 818 819 820 821 822 823 824 825
          826 827 828 829 830 831 832 833 834 835 836 837 838 839 840
          841 842 843 844 845 846 847 848 849 850 851 852 853 854 855
          856 857 858 859 860 861 862 863 864 865 866 867 868 869 870
          871 872 873 874 875 876 877 878 879 880 881 882 883 884 885
          886 887 888 889 890 891 892 893 894 895 896 897 898 899 900
          901 902 903 904 905 906 907 908 909 910 911 912 913 914 915
          916 917 918 919 920 921 922 923 924 925 926 927 928 929 930
          931 932 933 934 935 936 937 938 939 940 941 942 943 944 945
          946 947 948 949 950 951 952 953 954 955 956 957 958 959 960
          961 962 963 964 965 966 967 968 969 970 971 972 973 974 975
          976 977 978 979 980 981 982 983 984 985 986 987 988 989 990
          991 992 993 994 995 996 997 998 999 1000 1001 1002 1003 1004
          1005 1006 1007 1008 1009 1010 1011 1012 1013 1014 1015 1016
          1017 1018 1019 1020 1021 1022 1023 1024 1025 1026 1027 1028
          1029 1030 1031 1032 1033 1034 1035 1036 1037 1038 1039 1040
          1041 1042 1043 1044 1045 1046 1047 1048 1049 1050 1051 1052
          1053 1054 1055 1056 1057 1058 1059 1060 1061 1062 1063 1064
          1065 1066 1067 1068 1069 1070 1071 1072 1073 1074 1075 1076
          1077 1078 1079 1080 1081 1082 1083 1084 1085 1086 1087 1088
          1089 1090 1091 1092 1093 1094 1095 1096 1097 1098 1099 1100
          1101 1102 1103 1104 1105 1106 1107 1108 1109 1110 1111 1112
          1113 1114 1115 1116 1117 1118 1119 1120 1121 1122 1123 1124
          1125 1126 1127 1128 1129 1130 1131 1132 1133 1134 1135 1136
          1137 1138 1139 1140 1141 1142 1143 1144 1145 1146 1147 1148
          1149 1150 1151 1152 1153 1154 1155 1156 1157 1158 1159 1160
          1161 1162 1163 1164 1165 1166 1167 1168 1169 1170 1171 1172
          1173 1174 1175 1176 1177 1178 1179 1180 1181 1182 1183 1184
          1185 1186 1187 1188 1189 1190 1191 1192 1193 1194 1195 1196
          1197 1198 1199 1200 1201 1202 1203 1204 1205 1206 1207 1208
          1209 1210 1211 1212 1213 1214 1215 1216 1217 1218 1219 1220
          1221 1222 1223 1224 1225 1226 1227 1228 1229 1230 1231 1232
          1233 1234 1235 1236 1237 1238 1239 1240 1241 1242 1243 1244
          1245 1246 1247 1248 1249 1250 1251 1252 1253 1254 1255 1256
          1257 1258 1259 1260 1261 1262 1263 1264 1265 1266 1267 1268
          1269 1270 1271 1272 1273 1274 1275 1276 1277 1278 1279 1280
          1281 1282 1283 1284 1285 1286 1287 1288 1289 1290 1291 1292
          1293 1294 1295 1296 1297 1298 1299 1300 1301 1302 1303 1304
          1305 1306 1307 1308 1309 1310 1311 1312 1313 1314 1315 1316
          1317 1318 1319 1320 1321 1322 1323 1324 1325 1326 1327 1328
          1329 1330 1331 1332 1333 1334 1335 1336 1337 1338 1339 1340
          1341 1342 1343 1344 1345 1346 1347 1348 1349 1350 1351 1352
          1353 1354 1355 1356 1357 1358 1359 1360 1361 1362 1363 1364
          1365 1366 1367 1368 1369 1370 1371 1372 1373 1374 1375 1376
          1377 1378 1379 1380 1381 1382 1383 1384 1385 1386 1387 1388
          1389 1390 1391 1392 1393 1394 1395 1396 1397 1398 1399 1400
          1401 1402 1403 1404 1405 1406 1407 1408 1409 1410 1411 1412
          1413 1414 1415 1416 1417 1418 1419 1420 1421 1422 1423 1424
          1425 1426 1427 1428 1429 1430 1431 1432 1433 1434 1435 1436
          1437 1438 1439 1440 1441 1442 1443 1444 1445 1446 1447 1448
          1449 1450 1451 1452 1453 1454 1455 1456 1457 1458 1459 1460
          1461 1462 1463 1464 1465 1466 1467 1468 1469 1470 1471 1472
          1473 1474 1475 1476 1477 1478 1479 1480 1481 1482 1483 1484
          1485 1486 1487 1488 1489 1490 1491 1492 1493 1494 1495 1496
          1497 1498 1499 1500 1501 1502 1503 1504 1505 1506 1507 1508
          1509 1510 1511 1512 1513 1514 1515 1516 1517 1518 1519 1520
          1521 1522 1523 1524 1525 1526 1527 1528 1529 1530 1531 1532
          1533 1534 1535 1536 1537 1538 1539 1540 1541 1542 1543 1544
          1545 1546 1547 1548 1549 1550 1551 1552 1553 1554 1555 1556
          1557 1558 1559 1560 1561 1562 1563 1564 1565 1566 1567 1568
          1569 1570 1571 1572 1573 1574 1575 1576 1577 1578 1579 1580
          1581 1582 1583 1584 1585 1586 1587 1588 1589 1590 1591 1592
          1593 1594 1595 1596 1597 1598 1599 1600 1601 1602 1603 1604
          1605 1606 1607 1608 1609 1610 1611 1612 1613 1614 1615 1616
          1617 1618 1619 1620 1621 1622 1623 1624 1625 1626 1627 1628
          1629 1630 1631 1632 1633 1634 1635 1636 1637 1638 1639 1640
          1641 1642 1643 1644 1645 1646 1647 1648 1649 1650 1651 1652
          1653 1654 1655 1656 1657 1658 1659 1660 1661 1662 1663 1664
          1665 1666 1667 1668 1669 1670 1671 1672 1673 1674 1675 1676
          1677 1678 1679 1680 1681 1682 1683 1684 1685 1686 1687 1688
          1689 1690 1691 1692 1693 1694 1695 1696 1697 1698 1699 1700
          1701 1702 1703 1704 1705 1706 1707 1708 1709 1710 1711 1712
          1713 1714 1715 1716 1717 1718 1719 1720 1721 1722 1723 1724
          1725 1726 1727 1728 1729 1730 1731 1732 1733 1734 1735 1736
          1737 1738 1739 1740 1741 1742 1743 1744 1745 1746 1747 1748
          1749 1750 1751 1752 1753 1754 1755 1756 1757 1758 1759 1760
          1761 1762 1763 1764 1765 1766 1767 1768 1769 1770 1771 1772
          1773 1774 1775 1776 1777 1778 1779 1780 1781 1782 1783 1784
          1785 1786 1787 1788 1789 1790 1791 1792 1793 1794 1795 1796
          1797 1798 1799 1800 1801 1802 1803 1804 1805 1806 1807 1808
          1809 1810 1811 1812 1813 1814 1815 1816 1817 1818 1819 1820
          1821 1822 1823 1824 1825 1826 1827 1828 1829 1830 1831 1832
          1833 1834 1835 1836 1837 1838 1839 1840 1841 1842 1843 1844
          1845 1846 1847 1848 1849 1850 1851 1852 1853 1854 1855 1856
          1857 1858 1859 1860 1861 1862 1863 1864 1865 1866 1867 1868
          1869 1870 1871 1872 1873 1874 1875 1876 1877 1878 1879 1880
          1881 1882 1883 1884 1885 1886 1887 1888 1889 1890 1891 1892
          1893 1894 1895 1896 1897 1898 1899 1900 1901 1902 1903 1904
          1905 1906 1907 1908 1909 1910 1911 1912 1913 1914 1915 1916
          1917 1918 1919 1920 1921 1922 1923 1924 1925 1926 1927 1928
          1929 1930 1931 1932 1933 1934 1935 1936 1937 1938 1939 1940
          1941 1942 1943 1944 1945 1946 1947 1948 1949 1950 1951 1952
          1953 1954 1955 1956 1957 1958 1959 1960 1961 1962 1963 1964
          1965 1966 1967 1968 1969 1970 1971 1972 1973 1974 1975 1976
          1977 1978 1979 1980 1981 1982 1983 1984 1985 1986 1987 1988
          1989 1990 1991 1992 1993 1994 1995 1996 1997 1998 1999 2000
          2001 2002 2003 2004 2005 2006 2007 2008 2009 2010 2011 2012
          2013 2014 2015 2016 2017 2018 2019 2020 2021 2022 2023 2024
          2025 2026 2027 2028 2029 2030 2031 2032 2033 2034 2035 2036
          2037 2038 2039 2040 2041 2042 2043 2044 2045 2046 2047 2048
          2049 2050 2051 2052 2053 2054 2055 2056 2057 2058 2059 2060
          2061 2062 2063 2064 2065 2066 2067 2068 2069 2070 2071 2072
          2073 2074 2075 2076 2077 2078 2079 2080 2081 2082 2083 2084
          2085 2086 2087 2088 2089 2090 2091 2092 2093 2094 2095 2096
          2097 2098 2099 2100 2101 2102 2103 2104 2105 2106 2107 2108
          2109 2110 2111 2112 2113 2114 2115 2116 2117 2118 2119 2120
          2121 2122 2123 2124 2125 2126 2127 2128 2129 2130 2131 2132
          2133 2134 2135 2136 2137 2138 2139 2140 2141 2142 2143 2144
          2145 2146 2147 2148 2149 2150 2151 2152 2153 2154 2155 2156
          2157 2158 2159 2160 2161 2162 2163 2164 2165 2166 2167 2168
          2169 2170 2171 2172 2173 2174 2175 2176 2177 2178 2179 2180
          2181 2182 2183 2184 2185 2186 2187 2188 2189 2190 2191 2192
          2193 2194 2195 2196 2197 2198 2199 2200 2201 2202 2203 2204
          2205 2206 2207 2208 2209 2210 2211 2212 2213 2214 2215 2216
          2217 2218 2219 2220 2221 2222 2223 2224 2225 2226 2227 2228
          2229 2230 2231 2232 2233 2234 2235 2236 2237 2238 2239 2240
          2241 2242 2243 2244 2245 2246 2247 2248 2249 2250 2251 2252
          2253 2254 2255 2256 2257 2258 2259 2260 2261 2262 2263 2264
          2265 2266 2267 2268 2269 2270 2271 2272 2273 2274 2275 2276
          2277 2278 2279 2280 2281 2282 2283 2284 2285 2286 2287 2288
          2289 2290 2291 2292 2293 2294 2295 2296 2297 2298 2299 2300
          2301 2302 2303 2304 2305 2306 2307 2308 2309 2310 2311 2312
          2313 2314 2315 2316 2317 2318 2319 2320 2321 2322 2323 2324
          2325 2326 2327 2328 2329 2330 2331 2332 2333 2334 2335 2336
          2337 2338 2339 2340 2341 2342 2343 2344 2345 2346 2347 2348
          2349 2350 2351 2352 2353 2354 2355 2356 2357 2358 2359 2360
          2361 2362 2363 2364 2365 2366 2367 2368 2369 2370 2371 2372
          2373 2374 2375 2376 2377 2378 2379 2380 2381 2382 2383 2384
          2385 2386 2387 2388 2389 2390 2391 2392 2393 2394 2395 2396
          2397 2398 2399 2400 2401 2402 2403 2404 2405 2406 2407 2408
          2409 2410 2411 2412 2413 2414 2415 2416 2417 2418 2419 2420
          2421 2422 2423 2424 2425 2426 2427 2428 2429 2430 2431 2432
          2433 2434 2435 2436 2437 2438 2439 2440 2441 2442 2443 2444
          2445 2446 2447 2448 2449 2450 2451 2452 2453 2454 2455 2456
          2457 2458 2459 2460 2461 2462 2463 2464 2465 2466 2467 2468
          2469 2470 2471 2472 2473 2474 2475 2476 2477 2478 2479 2480
          2481 2482 2483 2484 2485 2486 2487 2488 2489 2490 2491 2492
          2493 2494 2495 2496 2497 2498 2499 2500 2501 2502 2503 2504
          2505 2506 2507 2508 2509 2510 2511 2512 2513 2514 2515 2516
          2517 2518 2519 2520 2521 2522 2523 2524 2525 2526 2527 2528
          2529 2530 2531 2532 2533 2534 2535 2536 2537 2538 2539 2540
          2541 2542 2543 2544 2545 2546 2547 2548 2549 2550 2551 2552
          2553 2554 2555 2556 2557 2558 2559 2560 2561 2562 2563 2564
          2565 2566 2567 2568 2569 2570 2571 2572 2573 2574 2575 2576
          2577 2578 2579 2580 2581 2582 2583 2584 2585 2586 2587 2588
          2589 2590 2591 2592 2593 2594 2595 2596 2597 2598 2599 2600
          2601 2602 2603 2604 2605 2606 2607 2608 2609 2610 2611 2612
          2613 2614 2615 2616 2617 2618 2619 2620 2621 2622 2623 2624
          2625 2626 2627 2628 2629 2630 2631 2632 2633 2634 2635 2636
          2637 2638 2639 2640 2641 2642 2643 2644 2645 2646 2647 2648
          2649 2650 2651 2652 2653 2654 2655 2656 2657 2658 2659 2660
          2661 2662 2663 2664 2665 2666 2667 2668 2669 2670 2671 2672
          2673 2674 2675 2676 2677 2678 2679 2680 2681 2682 2683 2684
          2685 2686 2687 2688 2689 2690 2691 2692 2693 2694 2695 2696
          2697 2698 2699 2700 2701 2702 2703 2704 2705 2706 2707 2708
          2709 2710 2711 2712 2713 2714 2715 2716 2717 2718 2719 2720
          2721 2722 2723 2724 2725 2726 2727 2728 2729 2730 2731 2732
          2733 2734 2735 2736 2737 2738 2739 2740 2741 2742 2743 2744
          2745 2746 2747 2748 2749 2750 2751 2752 2753 2754 2755 2756
          2757 2758 2759 2760 2761 2762 2763 2764 2765 2766 2767 2768
          2769 2770 2771 2772 2773 2774 2775 2776 2777 2778 2779 2780
          2781 2782 2783 2784 2785 2786 2787 2788 2789 2790 2791 2792
          2793 2794 2795 2796 2797 2798 2799 2800 2801 2802 2803 2804
          2805 2806 2807 2808 2809 2810 2811 2812 2813 2814 2815 2816
          2817 2818 2819 2820 2821 2822 2823 2824 2825 2826 2827 2828
          2829 2830 2831 2832 2833 2834 2835 2836 2837 2838 2839 2840
          2841 2842 2843 2844 2845 2846 2847 2848 2849 2850 2851 2852
          2853 2854 2855 2856 2857 2858 2859 2860 2861 2862 2863 2864
          2865 2866 2867 2868 2869 2870 2871 2872 2873 2874 2875 2876
          2877 2878 2879 2880 2881 2882 2883 2884 2885 2886 2887 2888
          2889 2890 2891 2892 2893 2894 2895 2896 2897 2898 2899 2900
          2901 2902 2903 2904 2905 2906 2907 2908 2909 2910 2911 2912
          2913 2914 2915 2916 2917 2918 2919 2920 2921 2922 2923 2924
          2925 2926 2927 2928 2929 2930 2931 2932 2933 2934 2935 2936
          2937 2938 2939 2940 2941 2942 2943 2944 2945 2946 2947 2948
          2949 2950 2951 2952 2953 2954 2955 2956 2957 2958 2959 2960
          2961 2962 2963 2964 2965 2966 2967 2968 2969 2970 2971 2972
          2973 2974 2975 2976 2977 2978 2979 2980 2981 2982 2983 2984
          2985 2986 2987 2988 2989 2990 2991 2992 2993 2994 2995 2996
          2997 2998 2999 3000 3001 3002 3003 3004 3005 3006 3007 3008
          3009 3010 3011 3012 3013 3014 3015 3016 3017 3018 3019 3020
          3021 3022 3023 3024 3025 3026 3027 3028 3029 3030 3031 3032
          3033 3034 3035 3036 3037 3038 3039 3040 3041 3042 3043 3044
          3045 3046 3047 3048 3049 3050 3051 3052 3053 3054 3055 3056
          3057 3058 3059 3060 3061 3062 3063 3064 3065 3066 3067 3068
          3069 3070 3071 3072 3073 3074 3075 3076 3077 3078 3079 3080
          3081 3082 3083 3084 3085 3086 3087 3088 3089 3090 3091 3092
          3093 3094 3095 3096 3097 3098 3099 3100 3101 3102 3103 3104
          3105 3106 3107 3108 3109 3110 3111 3112 3113 3114 3115 3116
          3117 3118 3119 3120 3121 3122 3123 3124 3125 3126 3127 3128
          3129 3130 3131 3132 3133 3134 3135 3136 3137 3138 3139 3140
          3141 3142 3143 3144 3145 3146 3147 3148 3149 3150 3151 3152
          3153 3154 3155 3156 3157 3158 3159 3160 3161 3162 3163 3164
          3165 3166 3167 3168 3169 3170 3171 3172 3173 3174 3175 3176
          3177 3178 3179 3180 3181 3182 3183 3184 3185 3186 3187 3188
          3189 3190 3191 3192 3193 3194 3195 3196 3197 3198 3199 3200
          3201 3202 3203 3204 3205 3206 3207 3208 3209 3210 3211 3212
          3213 3214 3215 3216 3217 3218 3219 3220 3221 3222 3223 3224
          3225 3226 3227 3228 3229 3230 3231 3232 3233 3234 3235 3236
          3237 3238 3239 3240 3241 3242 3243 3244 3245 3246 3247 3248
          3249 3250 3251 3252 3253 3254 3255 3256 3257 3258 3259 3260
          3261 3262 3263 3264 3265 3266 3267 3268 3269 3270 3271 3272
          3273 3274 3275 3276 3277 3278 3279 3280 3281 3282 3283 3284
          3285 3286 3287 3288 3289 3290 3291 3292 3293 3294 3295 3296
          3297 3298 3299 3300 3301 3302 3303 3304 3305 3306 3307 3308
          3309 3310 3311 3312 3313 3314 3315 3316 3317 3318 3319 3320
          3321 3322 3323 3324 3325 3326 3327 3328 3329 3330 3331 3332
          3333 3334 3335 3336 3337 3338 3339 3340 3341 3342 3343 3344
          3345 3346 3347 3348 3349 3350 3351 3352 3353 3354 3355 3356
          3357 3358 3359 3360 3361 3362 3363 3364 3365 3366 3367 3368
          3369 3370 3371 3372 3373 3374 3375 3376 3377 3378 3379 3380
          3381 3382 3383 3384 3385 3386 3387 3388 3389 3390 3391 3392
          3393 3394 3395 3396 3397 3398 3399 3400 3401 3402 3403 3404
          3405 3406 3407 3408 3409 3410 3411 3412 3413 3414 3415 3416
          3417 3418 3419 3420 3421 3422 3423 3424 3425 3426 3427 3428
          3429 3430 3431 3432 3433 3434 3435 3436 3437 3438 3439 3440
          3441 3442 3443 3444 3445 3446 3447 3448 3449 3450 3451 3452
          3453 3454 3455 3456 3457 3458 3459 3460 3461 3462 3463 3464
          3465 3466 3467 3468 3469 3470 3471 3472 3473 3474 3475 3476
          3477 3478 3479 3480 3481 3482 3483 3484 3485 3486 3487 3488
          3489 3490 3491 3492 3493 3494 3495 3496 3497 3498 3499 3500
          3501 3502 3503 3504 3505 3506 3507 3508 3509 3510 3511 3512
          3513 3514 3515 3516 3517 3518 3519 3520 3521 3522 3523 3524
          3525 3526 3527 3528 3529 3530 3531 3532 3533 3534 3535 3536
          3537 3538 3539 3540 3541 3542 3543 3544 3545 3546 3547 3548
          3549 3550 3551 3552 3553 3554 3555 3556 3557 3558 3559 3560
          3561 3562 3563 3564 3565 3566 3567 3568 3569 3570 3571 3572
          3573 3574 3575 3576 3577 3578 3579 3580 3581 3582 3583 3584
          3585 3586 3587 3588 3589 3590 3591 3592 3593 3594 3595 3596
          3597 3598 3599 3600 3601 3602 3603 3604 3605 3606 3607 3608
          3609 3610 3611 3612 3613 3614 3615 3616 3617 3618 3619 3620
          3621 3622 3623 3624 3625 3626 3627 3628 3629 3630 3631 3632
          3633 3634 3635 3636 3637 3638 3639 3640 3641 3642 3643 3644
          3645 3646 3647 3648 3649 3650 3651 3652 3653 3654 3655 3656
          3657 3658 3659 3660 3661 3662 3663 3664 3665 3666 3667 3668
          3669 3670 3671 3672 3673 3674 3675 3676 3677 3678 3679 3680
          3681 3682 3683 3684 3685 3686 3687 3688 3689 3690 3691 3692
          3693 3694 3695 3696 3697 3698 3699 3700 3701 3702 3703 3704
          3705 3706 3707 3708 3709 3710 3711 3712 3713 3714 3715 3716
          3717 3718 3719 3720 3721 3722 3723 3724 3725 3726 3727 3728
          3729 3730 3731 3732 3733 3734 3735 3736 3737 3738 3739 3740
          3741 3742 3743 3744 3745 3746 3747 3748 3749 3750 3751 3752
          3753 3754 3755 3756 3757 3758 3759 3760 3761 3762 3763 3764
          3765 3766 3767 3768 3769 3770 3771 3772 3773 3774 3775 3776
          3777 3778 3779 3780 3781 3782 3783 3784 3785 3786 3787 3788
          3789 3790 3791 3792 3793 3794 3795 3796 3797 3798 3799 3800
          3801 3802 3803 3804 3805 3806 3807 3808 3809 3810 3811 3812
          3813 3814 3815 3816 3817 3818 3819 3820 3821 3822 3823 3824
          3825 3826 3827 3828 3829 3830 3831 3832 3833 3834 3835 3836
          3837 3838 3839 3840 3841 3842 3843 3844 3845 3846 3847 3848
          3849 3850 3851 3852 3853 3854 3855 3856 3857 3858 3859 3860
          3861 3862 3863 3864 3865 3866 3867 3868 3869 3870 3871 3872
          3873 3874 3875 3876 3877 3878 3879 3880 3881 3882 3883 3884
          3885 3886 3887 3888 3889 3890 3891 3892 3893 3894 3895 3896
          3897 3898 3899 3900 3901 3902 3903 3904 3905 3906 3907 3908
          3909 3910 3911 3912 3913 3914 3915 3916 3917 3918 3919 3920
          3921 3922 3923 3924 3925 3926 3927 3928 3929 3930 3931 3932
          3933 3934 3935 3936 3937 3938 3939 3940 3941 3942 3943 3944
          3945 3946 3947 3948 3949 3950 3951 3952 3953 3954 3955 3956
          3957 3958 3959 3960 3961 3962 3963 3964 3965 3966 3967 3968
          3969 3970 3971 3972 3973 3974 3975 3976 3977 3978 3979 3980
          3981 3982 3983 3984 3985 3986 3987 3988 3989 3990 3991 3992
          3993 3994 3995 3996 3997 3998 3999 4000 4001 4002 4003 4004
          4005 4006 4007 4008 4009 4010 4011 4012 4013 4014 4015 4016
          4017 4018 4019 4020 4021 4022 4023 4024 4025 4026 4027 4028
          4029 4030 4031 4032 4033 4034 4035 4036 4037 4038 4039 4040
          4041 4042 4043 4044 4045 4046 4047 4048 4049 4050 4051 4052
          4053 4054 4055 4056 4057 4058 4059 4060 4061 4062 4063 4064
          4065 4066 4067 4068 4069 4070 4071 4072 4073 4074 4075 4076
          4077 4078 4079 4080 4081 4082 4083 4084 4085 4086 4087 4088
          4089 4090 4091 4092 4093 4094 4095 4096 4097 4098 4099 4100
          4101 4102 4103 4104 4105 4106 4107 4108 4109 4110 4111 4112
          4113 4114 4115 4116 4117 4118 4119 4120 4121 4122 4123 4124
          4125 4126 4127 4128 4129 4130 4131 4132 4133 4134 4135 4136
          4137 4138 4139 4140 4141 4142 4143 4144 4145 4146 4147 4148
          4149 4150 4151 4152 4153 4154 4155 4156 4157 4158 4159 4160
          4161 4162 4163 4164 4165 4166 4167 4168 4169 4170 4171 4172
          4173 4174 4175 4176 4177 4178 4179 4180 4181 4182 4183 4184
          4185 4186 4187 4188 4189 4190 4191 4192 4193 4194 4195 4196
          4197 4198 4199 4200 4201 4202 4203 4204 4205 4206 4207 4208
          4209 4210 4211 4212 4213 4214 4215 4216 4217 4218 4219 4220
          4221 4222 4223 4224 4225 4226 4227 4228 4229 4230 4231 4232
          4233 4234 4235 4236 4237 4238 4239 4240 4241 4242 4243 4244
          4245 4246 4247 4248 4249 4250 4251 4252 4253 4254 4255 4256
          4257 4258 4259 4260 4261 4262 4263 4264 4265 4266 4267 4268
          4269 4270 4271 4272 4273 4274 4275 4276 4277 4278 4279 4280
          4281 4282 4283 4284 4285 4286 4287 4288 4289 4290 4291 4292
          4293 4294 4295 4296 4297 4298 4299 4300 4301 4302 4303 4304
          4305 4306 4307 4308 4309 4310 4311 4312 4313 4314 4315 4316
          4317 4318 4319 4320 4321 4322 4323 4324 4325 4326 4327 4328
          4329 4330 4331 4332 4333 4334 4335 4336 4337 4338 4339 4340
          4341 4342 4343 4344 4345 4346 4347 4348 4349 4350 4351 4352
          4353 4354 4355 4356 4357 4358 4359 4360 4361 4362 4363 4364
          4365 4366 4367 4368 4369 4370 4371 4372 4373 4374 4375 4376
          4377 4378 4379 4380 4381 4382 4383 4384 4385 4386 4387 4388
          4389 4390 4391 4392 4393 4394 4395 4396 4397 4398 4399 4400
          4401 4402 4403 4404 4405 4406 4407 4408 4409 4410 4411 4412
          4413 4414 4415 4416 4417 4418 4419 4420 4421 4422 4423 4424
          4425 4426 4427 4428 4429 4430 4431 4432 4433 4434 4435 4436
          4437 4438 4439 4440 4441 4442 4443 4444 4445 4446 4447 4448
          4449 4450 4451 4452 4453 4454 4455 4456 4457 4458 4459 4460
          4461 4462 4463 4464 4465 4466 4467 4468 4469 4470 4471 4472
          4473 4474 4475 4476 4477 4478 4479 4480 4481 4482 4483 4484
          4485 4486 4487 4488 4489 4490 4491 4492 4493 4494 4495 4496
          4497 4498 4499 4500 4501 4502 4503 4504 4505 4506 4507 4508
          4509 4510 4511 4512 4513 4514 4515 4516 4517 4518 4519 4520
          4521 4522 4523 4524 4525 4526 4527 4528 4529 4530 4531 4532
          4533 4534 4535 4536 4537 4538 4539 4540 4541 4542 4543 4544
          4545 4546 4547 4548 4549 4550 4551 4552 4553 4554 4555 4556
[...]
        145      1.9449066E-05
        146     -9.1356053E-05
        147     -4.2744381E-04
        148     -7.5362183E-05
        149     -1.3258295E-04
        150     -1.8164017E-04
        151     -7.3707247E-05
        152     -7.8224681E-05
        153     -3.7942668E-05
        154     -5.3055153E-05
        155     -6.3848554E-05
        156     -2.1839624E-04
        157     -6.8692687E-05
        158     -1.0699118E-04
        159     -1.7496350E-04
        160     -2.7811100E-05
        161     -3.1789904E-04
        162     -3.4330786E-04
        163     -1.2278891E-04
        164     -6.8678089E-04
        165     -4.2435043E-04
        166     -7.6465971E-04
        167     -3.7940354E-04
        168     -7.5374667E-04
        169     -8.9285981E-04
        170     -1.8674915E-04
        171     -5.7071992E-04
        172     -6.2809165E-04
        173     -1.2489487E-03
        174     -1.0279504E-03
        175     -1.1410134E-03
        176     -4.5741678E-04
        177     -1.1700734E-03
        178     -9.5947757E-04
        179     -8.9501003E-04
        180     -6.0106666E-04
        181     -1.3606532E-03
        182      1.4589628E-04
        183      9.8179796E-05
        184     -1.0482884E-03
        185     -6.8906351E-05
        186      6.0849080E-04
        187     -4.9748807E-04
        188      1.0729040E-04
        194     -3.7686334E-04
        195     -5.9722455E-04
        196      7.1138010E-05
        293     -1.8264043E-03
        294     -2.4456143E-04
        295     -6.0076203E-04
        296      6.0691273E-05
        297     -5.2275272E-04
        298     -2.7476324E-04
        299     -2.3349226E-04
        300     -1.3371861E-04
        301     -1.0013508E-04
        302     -6.7093898E-05
        303     -1.1453211E-04
        304     -4.3348711E-06
        305     -1.6354918E-04
        306      2.5185586E-04
        307     -2.1512885E-04
        308     -1.4717984E-04
        309     -1.8398824E-04
        310      4.3126163E-05
        311     -3.8885258E-04
        312     -1.0572971E-04
        313     -2.5376864E-04
        314     -1.9443785E-04
        315     -5.6128636E-04
        316     -1.4561825E-04
        317     -9.7414773E-04
        318     -4.3669210E-05
        319     -5.2687372E-04
        320     -8.6094555E-04
        321     -2.0842606E-04
        322     -1.0867379E-03
        323     -3.2601631E-05
        324     -1.5850400E-03
        325     -6.9353227E-04
        326     -8.7057798E-04
        327     -7.8575631E-04
        328     -1.5270117E-03
        329     -4.1511860E-04
        330     -2.1038575E-03
        331     -1.4200759E-05
        332     -2.4221774E-03
        333      5.0937887E-04
        334     -7.3872038E-04
        335     -5.9205724E-04
        336     -1.4298700E-03
        337     -1.8023047E-05
        338     -6.6240355E-04
        339     -1.1779047E-03
        340     -7.5533165E-04
        341     -3.6671972E-04
        342     -2.8544843E-04
        343     -2.0205704E-04
        344     -3.1659980E-04
        345     -2.6542638E-04
        346     -4.2092587E-05
        347     -2.4823957E-04
        348     -1.3542105E-04
        349     -2.6806524E-05
        350     -1.5158011E-04
        351      4.4955698E-05
        352     -1.5186018E-04
        353      5.7911051E-05
        354     -1.9961739E-04
        355     -1.1034695E-04
        356      1.5832261E-04
        357     -3.8735971E-04
        358     -4.3089508E-04
        359      4.0017949E-06
        360      2.5886871E-05
        361     -6.7476565E-04
        362     -2.2517823E-04
        363     -8.3096869E-04
        364     -9.5162182E-05
        365     -9.2436295E-04
        366     -4.9001769E-04
        367     -5.2182279E-04
        368     -4.2567768E-04
        369     -1.2993681E-03
        370     -3.7476030E-04
        371     -7.0596928E-04
        372     -1.4328680E-03
        373     -8.8967767E-04
        374     -7.3738330E-04
        375     -1.9818083E-03
        376      3.4364398E-04
        377     -2.0333805E-03
        378     -3.8717404E-04
        379     -1.8658465E-03
        380      7.1494314E-04
        381     -4.6261330E-04
        382     -3.0659305E-04
        383      2.8669475E-04
        384     -1.2384479E-04
        385     -1.6876268E-04
        386     -6.6531178E-05
        392     -3.8230063E-04
        393      4.5765195E-04
        394     -2.9163213E-04
        879     -2.7104684E-03
        880     -3.2427023E-03
        881     -3.3763340E-03
        882     -3.4846819E-03
        883     -3.6109556E-03
        884     -2.0435414E-04
        885      2.3900582E-04
        886     -3.3506696E-04
        887     -4.2663211E-04
        888     -5.6700928E-04
        889     -2.5404910E-04
        890     -5.8916259E-04
        891     -1.3788714E-04
        892     -1.0184727E-03
        893     -1.9937362E-03
        894     -7.7723612E-04
        895     -1.3317208E-03
        896     -1.1422393E-03
        897     -2.5682294E-04
        898      2.4991837E-04
        899     -4.3921556E-04
        900      7.6691872E-05
        901     -7.4135040E-04
        902     -7.6116488E-04
        903     -1.0024128E-03
        904     -6.5326092E-04
        905     -4.4187416E-04
        906      1.5964193E-04
        907     -3.7304591E-04
        908     -3.0008827E-04
        909     -6.3189287E-05
        910     -6.2233457E-04
        911     -6.3570632E-04
        912     -3.2495500E-04
        913      4.8660274E-04
        914     -1.7064129E-04
        915      1.7217163E-04
        916     -2.0806316E-04
        917     -3.9758208E-04
        918     -7.2690350E-04
        919     -4.9130935E-04
        920     -4.8853048E-04
        921     -9.7072432E-05
        922     -1.5318377E-04
        923     -2.2072289E-05
        924      7.1154910E-06
        925     -1.1788577E-04
        926     -3.8814345E-04
        927     -5.4299263E-05
        928     -4.4807808E-05
        929     -2.0587751E-04
        930     -1.5100578E-04
        931     -1.4372450E-04
        932     -1.2942490E-04
        933     -8.4269986E-05
        934      5.5296318E-05
        935     -2.9732290E-04
        936     -2.7884048E-05
        937     -3.9515775E-04
        938     -2.4473439E-04
        939     -2.0184941E-04
        940     -2.3192910E-04
        941     -2.7215819E-04
        942      2.1053000E-04
        943     -1.0626716E-04
        944     -3.1185423E-04
        945      2.8616662E-04
        946      1.6033097E-04
        947     -4.6215886E-04
        948     -2.7547624E-04
        949     -1.7913104E-04
        950     -3.1217331E-04
        951     -3.2650163E-04
        952     -4.8594620E-05
        953      9.1293626E-05
        954     -6.4656741E-05
        955     -4.7570313E-04
        956     -2.9054269E-04
        957     -3.0574824E-04
        958     -2.7293279E-04
        959     -1.8977500E-04
        960      3.6790357E-04
        961      2.6203945E-04
        962      9.6342204E-05
        963     -1.2930938E-04
        964     -5.4199746E-04
        965     -7.3979888E-04
        966     -7.3268833E-04
        967     -4.5904218E-04
        968      3.4256403E-04
        969      2.0260626E-04
        970     -4.5844261E-05
        971     -2.1646981E-04
        972     -6.8125170E-04
        973     -1.0938935E-03
        974     -8.1900168E-04
        975     -4.2246908E-04
        976     -1.2091284E-04
        977      1.4913198E-04
        978     -3.2233125E-04
        979     -4.2934446E-04
        980     -7.8777705E-04
        981     -1.1844646E-03
        982     -3.2721959E-04
        983     -7.5843050E-04
        984     -1.1063092E-04
        985     -5.1727912E-04
        986      1.8223527E-04
        987     -1.0868375E-03
        988     -8.3298229E-04
        989     -6.1729453E-04
        990     -2.8112682E-04
        991     -9.5061084E-04
        992     -3.0435336E-04
        993      2.4318448E-04
        994     -7.8812033E-04
        995     -1.1014412E-03
        996     -1.0613288E-03
        997     -4.5908071E-04
        998     -1.0311316E-03
        999     -7.0160317E-04
       1000     -1.4467530E-03
       1001     -1.0259217E-03
       1002     -1.0553962E-03
       1003     -1.4240176E-03
       1004     -6.4500074E-04
       1005     -4.6777278E-04
       1006     -6.6432586E-04
       1007     -1.0647560E-03
       1008     -1.4623258E-03
       1009     -1.4905980E-03
       1010     -1.0995202E-03
       1011     -1.3015324E-03
       1012     -1.7601815E-03
       1013     -1.0759722E-03
       1014     -1.1064165E-03
       1015     -7.7440747E-04
       1016     -1.0788199E-03
       1017     -1.0336954E-03
       1018     -5.8771157E-04
       1019     -8.1565352E-04
       1020     -1.5226634E-03
       1021     -1.0648547E-03
       1022     -1.0510104E-03
       1023     -1.6469917E-03
       1024     -1.8813676E-03
       1025     -1.2248201E-03
       1026     -1.4306354E-03
       1027     -1.5770948E-03
       1028     -1.8585884E-03
       1029     -7.3937574E-04
       1030     -1.6030489E-03
       1031     -1.6015812E-03
       1032     -8.9510291E-04
       1033     -5.0194530E-04
       1034     -1.6184760E-03
       1035     -1.0148048E-03
       1036     -1.5201334E-03
       1037     -2.1650371E-03
       1038     -2.0442544E-03
       1039     -2.8251066E-03
       1040     -2.5534507E-03
       1041     -1.6837811E-03
       1042     -1.5533243E-03
       1043     -2.6232141E-03
       1044     -1.3433276E-03
       1045     -1.2132314E-03
       1046     -2.4788591E-03
       1047     -1.6416052E-03
       1048     -1.2548153E-03
       1049     -1.2989648E-03
       1050     -2.2421776E-03
       1051     -7.3635587E-04
       1052     -2.3738194E-03
       1053     -1.7118805E-03
       1054     -1.8802993E-03
       1055     -2.7487766E-03
       1056     -2.5921080E-03
       1057     -2.1682841E-03
       1058     -1.6537201E-03
       1059     -2.6681158E-03
       1060     -1.7209132E-03
       1061     -2.6546993E-03
       1062     -1.3042430E-03
       1063     -2.3917006E-03
       1064     -1.2519606E-03
       1065     -1.1409323E-03
       1066     -1.6468613E-03
       1067     -1.8316769E-03
       1068     -1.8123180E-03
       1069     -3.5470269E-03
       1070     -3.2568010E-03
       1071     -9.5710836E-04
       1072     -1.0000100E-03
       1073     -4.1967884E-03
       1074     -2.3784111E-03
       1075     -6.8444285E-04
       1076     -3.6482449E-03
       1077     -2.5599672E-03
       1078     -2.4570388E-03
       1079     -3.7075347E-05
       1080     -1.7149831E-03
       1081     -1.0366218E-03
       1082     -1.2337894E-03
       1083      5.5811739E-04
       1084     -1.6703352E-03
       1085     -1.5639122E-03
       1086     -1.4227180E-03
       1087     -3.4466350E-03
       1088     -2.8727372E-03
       1089     -1.6583142E-03
       1090     -1.9827920E-03
       1091     -2.8989137E-03
       1092     -8.1347371E-04
       1093      1.3100325E-03
       1094     -1.9852375E-03
       1095     -1.3198302E-03
       1096      5.3670060E-04
       1097     -1.2908483E-03
       1098     -2.7050075E-03
       1099     -3.6824727E-04
       1100     -5.3549262E-04
       1101     -2.5144953E-03
       1102     -2.0600395E-03
       1103     -1.6088767E-03
       1104     -1.2805473E-03
       1105     -2.0973504E-03
       1106     -1.0514661E-04
       1107     -1.4387368E-04
       1108     -3.2047844E-05
       1109     -1.8559923E-03
       1110      3.6167571E-05
       1111     -1.6734145E-03
       1112     -1.5724743E-03
       1113     -1.3506706E-03
       1114     -3.7683472E-04
       1115     -2.8107416E-04
       1116     -7.3410804E-05
       1117     -8.2462589E-04
       1118     -7.9981673E-04
       1119     -3.3629692E-04
       1120      3.9353559E-04
       1121     -1.8258887E-03
       1122     -7.9339606E-04
       1123     -3.5651640E-05
       1124     -9.4342587E-04
       1125     -9.1857698E-04
       1126     -3.3012935E-04
       1127     -6.2899393E-04
       1128     -7.6156580E-04
       1129     -2.7947289E-04
       1130     -7.6733452E-04
       1131     -1.2649882E-03
       1132     -8.5363354E-04
       1133     -4.1210154E-04
       1134     -7.0863337E-05
       1135     -2.3962556E-04
       1136      8.9402364E-05
       1137     -3.6505704E-04
       1138     -2.3703511E-04
       1139     -5.5269305E-04
       1140     -3.7062059E-04
       1141     -2.7365990E-04
       1142     -4.9014253E-05
       1143     -6.2076944E-04
       1144     -6.0520836E-04
       1145     -5.9542142E-04
       1146     -7.2783996E-04
       1147     -3.9467622E-04
       1148     -7.7564611E-05
       1149      3.0186283E-05
       1150      1.5724045E-04
       1151      2.9687017E-04
       1152     -4.7999221E-04
       1153     -4.4381456E-04
       1154     -2.7563270E-04
       1155     -3.9471479E-04
       1156     -2.8737873E-04
       1157      1.4480399E-04
       1158      1.2112060E-04
       1159     -4.2675494E-04
       1160     -3.9022281E-04
       1161     -5.3487147E-04
       1162     -2.6151883E-04
       1163     -3.5532212E-04
       1164     -8.7325208E-05
       1165      3.5125121E-04
       1166      5.1091122E-05
       1167     -2.4718495E-04
       1168     -5.5661237E-04
       1169     -3.5510294E-05
       1170     -3.1250580E-04
       1171     -1.4514867E-04
       1172     -3.0445018E-04
       1173      1.1941335E-04
       1174     -2.4003794E-04
       1175     -4.5658874E-04
       1176     -3.5165743E-04
       1177     -2.1414241E-04
       1178     -7.1686353E-05
       1179      6.2789066E-05
       1180      1.8863195E-04
       1181      8.2800316E-05
       1182      2.2719390E-04
       1183      6.2697141E-05
       1184     -2.9515439E-04
       1185     -3.9907292E-04
       1186     -2.3776931E-04
       1187     -3.5134825E-04
       1188     -3.7171542E-04
       1189     -6.1973472E-04
       1190     -4.1772797E-04
       1191     -4.3229927E-04
       1192     -4.2484659E-04
       1193     -7.5352890E-05
       1194      4.9799088E-05
       1195      2.9354378E-04
       1196      1.0497180E-04
       1197      1.8442368E-04
       1198     -8.2090338E-05
       1199     -4.8543212E-04
       1200     -8.6571786E-04
       1201     -8.2128857E-04
       1202     -6.9748014E-04
       1203     -8.9703326E-04
       1204     -1.1796271E-04
       1205     -2.6105372E-04
       1206     -4.2674733E-04
       1207     -6.2204701E-04
       1208     -1.4911469E-04
       1209     -7.3157025E-04
       1210     -4.2240381E-04
       1211      1.3387617E-04
       1212     -6.0405089E-05
       1213     -7.0817317E-04
       1214     -4.6734986E-04
       1215     -5.7763613E-04
       1216     -1.1121877E-03
       1217     -9.7449174E-04
       1218     -4.9497275E-04
       1219     -5.1761385E-04
       1220     -8.0419514E-04
       1221     -8.7792236E-04
       1222     -6.1853526E-04
       1223     -4.3640907E-04
       1224     -1.0386801E-03
       1225     -6.9298577E-04
       1226     -1.6903105E-04
       1227     -2.7125582E-05
       1228     -1.0543132E-03
       1229     -4.0629833E-04
       1230     -1.7917249E-04
       1231     -1.0547137E-03
       1232     -4.8785615E-04
       1233     -5.6408666E-04
       1234     -1.4361763E-03
       1235     -9.1839027E-04
       1236     -1.1168820E-03
       1237     -1.7933433E-03
       1238     -6.4749320E-04
       1239     -1.6749152E-03
       1240     -1.3282445E-03
       1241     -7.7248284E-04
       1242     -1.0130228E-03
       1243     -1.1233794E-03
       1244     -1.9486386E-04
       1245     -9.5916297E-04
       1246     -1.7102076E-03
       1247     -1.5833007E-03
       1248     -9.5060160E-04
       1249     -2.5122798E-03
       1250     -1.4984739E-03
       1251     -8.2158524E-04
       1252     -6.0695077E-04
       1253     -1.3800387E-03
       1254     -3.0899523E-04
       1255     -1.1201937E-03
       1256     -1.3519387E-03
       1257     -1.7592657E-03
       1258     -9.2670468E-04
       1259     -1.5864381E-03
       1260     -1.4797903E-03
       1261     -1.3710149E-03
       1262     -1.7785659E-03
       1263     -1.7624609E-03
       1264     -1.1706159E-03
       1265     -1.3119980E-03
       1266     -1.6528853E-03
       1267     -1.2121393E-03
       1268     -7.8382984E-04
       1269     -1.9558797E-03
       1270     -2.0082944E-03
       1271     -2.1067742E-03
       1272     -1.8758197E-03
       1273     -1.8875525E-03
       1274     -3.1226950E-03
       1275     -2.5699656E-03
       1276     -1.5806078E-03
       1277     -2.0254351E-03
       1278     -3.1435858E-03
       1279     -8.0816697E-04
       1280     -2.0995957E-03
       1281     -1.8477798E-03
       1282     -2.0083403E-03
       1283     -8.0549393E-04
       1284     -1.0694436E-03
       1285     -1.4280851E-03
       1286     -1.7042205E-03
       1287     -1.9232892E-03
       1288     -2.8716598E-03
       1289     -4.0527597E-03
       1290     -1.7733400E-03
       1291     -1.6076003E-03
       1292     -9.4943129E-04
       1293     -1.3919626E-03
       1294     -1.7502209E-03
       1295     -2.8641632E-03
       1296     -1.8579587E-03
       1297     -3.3146472E-03
       1298     -1.5105220E-03
       1299     -2.1924670E-03
       1300     -1.2352219E-04
       1301     -1.0790178E-03
       1302     -2.3426533E-03
       1303     -3.3273495E-03
       1304     -1.7438750E-03
       1305     -3.5369848E-03
       1306     -4.2924654E-03
       1307      3.0818311E-04
       1308     -2.9772373E-04
       1309      5.8725463E-04
       1310      1.1552965E-03
       1311     -1.0176717E-03
       1312     -8.4429777E-04
       1313      3.6856139E-05
       1314     -1.8425091E-03
       1315     -2.6480802E-03
       1316      5.9139139E-05
       1317     -1.6444346E-03
       1318     -3.2418050E-03
       1319      1.3103437E-03
       1320      8.3477036E-04
       1321     -9.3561139E-04
       1322     -2.0236978E-03
       1323     -6.5627948E-04
       1324     -6.2843257E-04
       1325     -1.6340142E-03
       1326      1.3502294E-04
       1327      1.1350600E-03
       1328      1.0904543E-03
       1329     -4.3728069E-04
       1330      6.1304053E-04
       1331     -2.7289407E-04
       1332     -1.4003611E-04
       1333     -4.7433849E-04
       1334     -3.8100079E-04
       1335     -5.8786329E-04
       1336      7.6308336E-06
       1337     -2.1296620E-04
       1338     -3.9473691E-04
       1339     -6.5176659E-04
       1340     -5.6673268E-04
       1341     -7.0968861E-04
       1342     -7.8216599E-04
       1343     -6.8017090E-04
       1344     -1.6275699E-04
       1345     -1.4550794E-04
       1346     -9.7617869E-05
       1347     -1.5158423E-04
       1348     -9.1298539E-05
       1374     -5.6320411E-04
       1375     -1.1587475E-03
       1376     -7.5819587E-04
       1377     -2.7471863E-04
       1378     -3.5980594E-04
       1379     -7.4263152E-04
       1380     -1.2000358E-03
       1381      2.8067663E-04
       1382     -1.2774424E-03
       1383     -8.2509274E-04
       1384     -3.5111546E-04
       1385     -1.4366141E-03
       1386     -8.3854601E-04
       1387     -1.2128162E-04
       1388     -7.4800526E-04

 MAXIMUM         1.3103E-03
 AT NODE              1319

 MINIMUM        -4.2925E-03
 AT NODE              1306


          THE ANALYSIS HAS BEEN COMPLETED



                              ANALYSIS COMPLETE
                              WITH      4 WARNING MESSAGES ON THE DAT FILE



     JOB TIME SUMMARY
       USER TIME (SEC)      =   5.5000    
       SYSTEM TIME (SEC)    =   1.4000    
       TOTAL CPU TIME (SEC) =   6.9000    
       WALLCLOCK TIME (SEC) =          3
