*Heading
** Job name: sq-7mm_sin-per-10_sin-amp-1.3mm_tet_test Model name: Model-1
** Generated by: Abaqus/CAE 2021
*Preprint, echo=NO, model=NO, history=NO, contact=NO
**
** PARTS
**
*Part, name=Part-1
*End Part
**
**
** ASSEMBLY
**
*Assembly, name=Assembly
**
*Instance, name=Part-1-1, part=Part-1
*Node
1, -20, 3.5, 0
2, -19.619, 2.7677, 0
3, -19.2381, 2.2899, 0
4, -18.8571, 2.2326, 0
5, -18.4762, 2.6158, 0
6, -18.0952, 3.3062, 0
7, -17.7143, 4.064, 0
8, -17.3333, 4.6258, 0
9, -16.9524, 4.7964, 0
10, -16.5714, 4.5164, 0
11, -16.1905, 3.8832, 0
12, -15.8095, 3.1168, 0
13, -15.4286, 2.4836, 0
14, -15.0476, 2.2036, 0
15, -14.6667, 2.3742, 0
16, -14.2857, 2.936, 0
17, -13.9048, 3.6938, 0
18, -13.5238, 4.3842, 0
19, -13.1429, 4.7674, 0
20, -12.7619, 4.7101, 0
** ... 17123 like lines cut
*Element, type=C3D10H
1, 2179, 2193, 650, 2196, 2660, 2658, 2659, 2661, 2662, 2663
2, 2133, 632, 2149, 647, 2666, 2664, 2665, 2667, 2668, 2669
3, 2002, 2552, 2538, 1842, 2672, 2670, 2671, 2673, 2674, 2675
4, 833, 2372, 2378, 848, 2678, 2676, 2677, 2679, 2680, 2681
5, 2227, 1220, 372, 1225, 2684, 2682, 2683, 2685, 2686, 2687
6, 2131, 2111, 2568, 2145, 2690, 2688, 2689, 2691, 2692, 2693
7, 1919, 2573, 2581, 2577, 2696, 2694, 2695, 2697, 2698, 2699
8, 1863, 2570, 2567, 1852, 2702, 2700, 2701, 2703, 2704, 2705
9, 1863, 2575, 2191, 2580, 2708, 2706, 2707, 2709, 2710, 2711
10, 2495, 460, 1712, 2001, 2714, 2712, 2713, 2715, 2716, 2717
11, 470, 1709, 222, 221, 2720, 2718, 2719, 2721, 2722, 2723
12, 1686, 1105, 350, 1110, 2726, 2724, 2725, 2727, 2728, 2729
13, 2341, 1105, 1106, 2356, 2732, 2730, 2731, 2733, 2734, 2735
14, 1686, 350, 1130, 1110, 2725, 2736, 2737, 2727, 2729, 2738
15, 1686, 350, 1105, 349, 2725, 2724, 2726, 2739, 2740, 2741
16, 84, 85, 864, 1562, 2744, 2742, 2743, 2745, 2746, 2747
17, 1599, 854, 864, 84, 2750, 2748, 2749, 2751, 2752, 2743
18, 1863, 1919, 2575, 2580, 2754, 2753, 2708, 2709, 2755, 2710
19, 1919, 2577, 2587, 2573, 2697, 2756, 2757, 2696, 2698, 2758
20, 1919, 2587, 2577, 2584, 2757, 2756, 2697, 2759, 2760, 2761
** ... 9982 like lines cut
*Nset, nset=Set-1, generate
1, 17143, 1
*Elset, elset=Set-1, generate
1, 10002, 1
** Section: Section-1
*Solid Section, elset=Set-1, controls=EC-1, material=Material-1
,
*End Instance
**
*Nset, nset=bc-set-1, instance=Part-1-1
1, 2, 3, 4, 5, 6, 7, 8, 9, 10, 11, 12, 13, 14, 15, 16
17, 18, 19, 20, 21, 22, 23, 24, 25, 26, 27, 28, 29, 30, 31, 32
33, 34, 35, 36, 37, 38, 39, 40, 41, 42, 43, 44, 45, 46, 47, 48
49, 50, 51, 52, 53, 54, 55, 56, 57, 58, 59, 60, 61, 62, 63, 64
65, 66, 67, 68, 69, 70, 71, 72, 73, 74, 75, 76, 77, 78, 79, 80
81, 82, 83, 84, 85, 86, 87, 88, 89, 90, 91, 92, 93, 94, 95, 96
97, 98, 99, 100, 101, 102, 205, 206, 207, 208, 217, 218, 219, 220, 221, 222
223, 224, 225, 226, 227, 228, 229, 230, 231, 232, 233, 234, 235, 236, 237, 238
239, 240, 241, 242, 243, 244, 245, 246, 247, 248, 249, 250, 251, 252, 253, 254
255, 256, 257, 258, 259, 260, 261, 262, 263, 264, 265, 266, 267, 268, 269, 270
271, 272, 273, 274, 275, 276, 277, 278, 279, 280, 281, 282, 283, 284, 285, 286
287, 288, 289, 290, 291, 292, 293, 294, 295, 296, 297, 298, 299, 300, 301, 302
303, 304, 305, 306, 307, 308, 309, 310, 311, 312, 313, 314, 315, 316, 317, 318
421, 422, 423, 424, 445, 446, 447, 448, 449, 450, 451, 452, 453, 454, 455, 456
457, 458, 459, 460, 461, 462, 463, 464, 465, 466, 467, 468, 469, 470, 471, 472
473, 474, 475, 476, 477, 478, 479, 480, 481, 482, 483, 484, 485, 486, 487, 488
489, 490, 491, 492, 493, 494, 495, 496, 497, 498, 499, 500, 501, 502, 503, 504
505, 506, 507, 508, 509, 510, 511, 512, 513, 514, 515, 516, 517, 518, 519, 520
521, 522, 523, 524, 525, 526, 527, 528, 529, 530, 531, 532, 533, 534, 535, 536
537, 538, 539, 540, 541, 542, 543, 544, 545, 546, 547, 548, 549, 550, 551, 552
** ... 128 like lines cut
*Elset, elset=bc-set-1, instance=Part-1-1
1, 2, 4, 10, 11, 16, 17, 42, 43, 49, 51, 52, 53, 66, 74, 75
79, 101, 102, 113, 122, 126, 128, 140, 146, 147, 148, 151, 152, 153, 157, 158
159, 160, 161, 162, 163, 166, 167, 169, 170, 171, 174, 176, 180, 184, 187, 188
196, 199, 210, 212, 224, 230, 234, 235, 237, 243, 244, 246, 247, 248, 249, 251
253, 256, 259, 261, 262, 263, 264, 265, 271, 276, 277, 283, 286, 290, 293, 299
308, 310, 311, 320, 322, 323, 329, 330, 333, 341, 347, 348, 349, 350, 354, 358
359, 362, 366, 376, 378, 382, 388, 389, 390, 391, 393, 394, 395, 396, 397, 398
399, 405, 410, 413, 414, 416, 423, 424, 433, 435, 436, 439, 441, 450, 454, 459
460, 468, 470, 473, 482, 494, 503, 506, 510, 516, 517, 524, 529, 531, 533, 541
547, 548, 550, 551, 553, 568, 569, 573, 575, 576, 579, 580, 581, 584, 586, 587
589, 590, 593, 595, 597, 598, 599, 600, 621, 624, 634, 641, 642, 645, 646, 650
651, 656, 662, 669, 673, 691, 694, 695, 698, 699, 700, 708, 709, 723, 725, 727
731, 733, 735, 744, 750, 753, 754, 755, 761, 776, 779, 784, 787, 793, 803, 804
816, 817, 818, 820, 822, 825, 827, 828, 829, 830, 835, 837, 839, 843, 846, 851
853, 854, 855, 858, 862, 865, 873, 875, 885, 886, 891, 893, 902, 904, 905, 906
908, 911, 919, 920, 921, 929, 931, 938, 939, 940, 942, 948, 952, 953, 957, 959
960, 965, 969, 970, 974, 980, 993, 998, 1000, 1004, 1005, 1006, 1008, 1009, 1012, 1013
1014, 1015, 1020, 1021, 1022, 1023, 1029, 1042, 1046, 1050, 1052, 1064, 1067, 1076, 1080, 1082
1085, 1087, 1095, 1118, 1122, 1123, 1128, 1129, 1132, 1133, 1138, 1139, 1141, 1142, 1143, 1153
1155, 1157, 1158, 1168, 1173, 1177, 1178, 1181, 1182, 1184, 1187, 1193, 1198, 1202, 1203, 1206
** ... 164 like lines cut
*Nset, nset=bc-set-2, instance=Part-1-1
103, 104, 105, 106, 107, 108, 109, 110, 111, 112, 113, 114, 115, 116, 117, 118
119, 120, 121, 122, 123, 124, 125, 126, 127, 128, 129, 130, 131, 132, 133, 134
135, 136, 137, 138, 139, 140, 141, 142, 143, 144, 145, 146, 147, 148, 149, 150
151, 152, 153, 154, 155, 156, 157, 158, 159, 160, 161, 162, 163, 164, 165, 166
167, 168, 169, 170, 171, 172, 173, 174, 175, 176, 177, 178, 179, 180, 181, 182
183, 184, 185, 186, 187, 188, 189, 190, 191, 192, 193, 194, 195, 196, 197, 198
199, 200, 201, 202, 203, 204, 211, 212, 213, 214, 319, 320, 321, 322, 323, 324
325, 326, 327, 328, 329, 330, 331, 332, 333, 334, 335, 336, 337, 338, 339, 340
341, 342, 343, 344, 345, 346, 347, 348, 349, 350, 351, 352, 353, 354, 355, 356
357, 358, 359, 360, 361, 362, 363, 364, 365, 366, 367, 368, 369, 370, 371, 372
373, 374, 375, 376, 377, 378, 379, 380, 381, 382, 383, 384, 385, 386, 387, 388
389, 390, 391, 392, 393, 394, 395, 396, 397, 398, 399, 400, 401, 402, 403, 404
405, 406, 407, 408, 409, 410, 411, 412, 413, 414, 415, 416, 417, 418, 419, 420
427, 428, 429, 430, 955, 956, 957, 958, 959, 960, 961, 962, 963, 964, 965, 966
967, 968, 969, 970, 971, 972, 973, 974, 975, 976, 977, 978, 979, 980, 981, 982
983, 984, 985, 986, 987, 988, 989, 990, 991, 992, 993, 994, 995, 996, 997, 998
999, 1000, 1001, 1002, 1003, 1004, 1005, 1006, 1007, 1008, 1009, 1010, 1011, 1012, 1013, 1014
1015, 1016, 1017, 1018, 1019, 1020, 1021, 1022, 1023, 1024, 1025, 1026, 1027, 1028, 1029, 1030
1031, 1032, 1033, 1034, 1035, 1036, 1037, 1038, 1039, 1040, 1041, 1042, 1043, 1044, 1045, 1046
1047, 1048, 1049, 1050, 1051, 1052, 1053, 1054, 1055, 1056, 1057, 1058, 1059, 1060, 1061, 1062
** ... 128 like lines cut
*Elset, elset=bc-set-2, instance=Part-1-1
5, 12, 13, 14, 15, 21, 22, 23, 24, 50, 55, 56, 59, 67, 78, 89
90, 96, 97, 98, 100, 103, 105, 121, 130, 131, 132, 133, 138, 144, 145, 149
156, 178, 179, 181, 190, 193, 194, 195, 204, 205, 214, 215, 221, 228, 231, 232
240, 241, 245, 269, 281, 287, 288, 289, 294, 298, 301, 307, 316, 319, 324, 325
343, 352, 364, 365, 368, 375, 381, 383, 387, 411, 412, 417, 419, 420, 426, 427
429, 443, 445, 446, 448, 449, 452, 453, 455, 457, 461, 462, 464, 465, 466, 471
474, 475, 476, 477, 479, 480, 485, 486, 488, 491, 492, 493, 496, 497, 498, 499
501, 504, 505, 508, 511, 512, 513, 515, 518, 523, 528, 534, 536, 544, 545, 554
558, 559, 561, 566, 572, 574, 592, 617, 619, 620, 622, 623, 625, 627, 631, 637
640, 644, 647, 649, 652, 653, 655, 658, 659, 661, 663, 667, 668, 670, 671, 672
675, 676, 678, 680, 681, 684, 685, 688, 690, 692, 696, 697, 701, 702, 704, 706
710, 711, 719, 720, 721, 724, 726, 729, 730, 732, 734, 736, 737, 740, 741, 742
743, 745, 747, 749, 751, 757, 759, 764, 767, 769, 774, 788, 794, 795, 805, 815
819, 826, 833, 834, 838, 844, 845, 847, 848, 849, 850, 860, 863, 871, 872, 882
894, 907, 909, 914, 922, 925, 927, 928, 933, 936, 945, 946, 949, 950, 955, 958
961, 963, 966, 972, 986, 989, 995, 1010, 1011, 1026, 1040, 1041, 1043, 1047, 1048, 1049
1051, 1053, 1054, 1057, 1062, 1068, 1074, 1100, 1105, 1107, 1108, 1110, 1111, 1112, 1114, 1115
1121, 1125, 1126, 1134, 1135, 1144, 1148, 1150, 1152, 1156, 1161, 1163, 1166, 1167, 1169, 1171
1174, 1175, 1185, 1189, 1190, 1191, 1192, 1194, 1196, 1199, 1200, 1207, 1209, 1212, 1215, 1218
1219, 1222, 1224, 1225, 1227, 1228, 1233, 1235, 1237, 1238, 1240, 1241, 1242, 1246, 1247, 1249
** ... 165 like lines cut
*End Assembly
**
** ELEMENT CONTROLS
**
*Section Controls, name=EC-1, hourglass=ENHANCED
1., 1., 1.
**
** MATERIALS
**
*Material, name=Material-1
*Hyperelastic, n=3, ogden
0.4017, 1.3, 0.00295, 5, 0.00981, -2, 0, 0
0,
** ----------------------------------------------------------------
**
** STEP: Step-1
**
*Step, name=Step-1, nlgeom=YES
*Static
1., 1., 1e-05, 1.
**
** BOUNDARY CONDITIONS
**
** Name: BC-1 Type: Displacement/Rotation
*Boundary
bc-set-1, 1, 1, 3
bc-set-1, 2, 6
** Name: BC-2 Type: Symmetry/Antisymmetry/Encastre
*Boundary
bc-set-2, ENCASTRE
**
** OUTPUT REQUESTS
**
*Restart, write, frequency=0
**
** FIELD OUTPUT: F-Output-1
**
*Output, field, variable=PRESELECT
**
** HISTORY OUTPUT: H-Output-1
**
*Output, history, variable=PRESELECT
*NODE PRINT
U
*EL PRINT, position = centroidal
DG
*EL PRINT, elset = bc-set-1, position = centroidal
S12
*EL PRINT, elset = bc-set-2, position = centroidal
S12
*End Step