1

   Abaqus 2021                                  Date 22-Jun-2023   Time 21:58:21
   For use by UNIVERSITY OF MICHIGAN under license from Dassault Systemes or its subsidiary.



                         The Abaqus Software is a product of:

                           Dassault Systemes SIMULIA Corp.
                           1301 Atwood Avenue, Suite 101W
                              Johnston, RI 02919, USA
 


                   The Abaqus Software is available only under license
                   from Dassault Systemes or its subsidiary and may be
                   used or reproduced only in accordance with the terms
                   of such license.
 
                          On machine ME-ESTRADALAB04 
                          you are authorized to run
                          Abaqus/Standard until 31-Jul-2024

                          Your site id is: 200000000004058 


 
                    For assistance or any other information you may
                    obtain contact information for your local office
                    from the world wide web at:

                      http://www.3ds.com/products/simulia/locations/

 
                * * * * * * * * * * * * * * * * * * * * * * * * * * * * * * 
                *                                                         * 
                *                   *****************                     * 
                *                   *  N O T I C E  *                     * 
                *                   *****************                     * 
                *                                                         * 
                *                                                         * 
                *                       Abaqus 2021                       * 
                *                                                         * 
                *          BUILD ID: 2020_03_06-09.50.37 167380           * 
                *                                                         * 
                *                                                         * 
                *  Please make sure you are using                         * 
                *  release Abaqus 2021 manuals                            * 
                *  plus the notes accompanying this release.              * 
                *                                                         * 
                *                                                         * 
                *                                                         * 
                *                                                         * 
                *                                                         * 
                *   This program may not be used for commercial purposes  * 
                *           without payment of a commercial fee.          * 
                *                                                         * 
                * * * * * * * * * * * * * * * * * * * * * * * * * * * * * * 


 



     PROCESSING PART, INSTANCE, AND ASSEMBLY INFORMATION
   *******************************************************


 ***WARNING: in keyword *ELSET, file 
             "sq-18.9892mm_sin-per-10_sin-amp-5.3021mm_tet_test.inp", line 
             1708: One or more data lines contain more than 16 items (counting 
             those after trailing commas).  The extra items are deleted.

     END PROCESSING PART, INSTANCE, AND ASSEMBLY INFORMATION
   ***********************************************************




     OPTIONS BEING PROCESSED
   ***************************


  *Heading
  *Node
  *Element, type=C3D10H
  *Nset, nset=ASSEMBLY_PART-1-1_SET-1
  *Elset, elset=ASSEMBLY_PART-1-1_SET-1
  *Nset, nset=ASSEMBLY_BC-SET-1
  *Nset, nset=ASSEMBLY_BC-SET-2
  *Elset, elset=ASSEMBLY_BC-SET-1
  *Elset, elset=ASSEMBLY_BC-SET-2
  *material, name=MATERIAL-1
  *hyperelastic, n=3, ogden
  *solidsection, elset=ASSEMBLY_PART-1-1_SET-1, controls=EC-1, material=MATERIAL-1
  *sectioncontrols, name=EC-1, hourglass=ENHANCED

 ***WARNING: THE PARAMETER HOURGLASS = ENHANCED ON THE SECTION CONTROLS OPTION 
             IS RELEVANT FOR THESE ELEMENTS: C3D8R, CAX4R, CGAX4R, CPEG4R, 
             CPE4R, CPS4R, M3D4R, S4R, SC8R AND THEIR HYBRID, THERMAL AND 
             PRESSURE COUNTERPARTS WHEREVER APPLICABLE. IT IS ALSO RELEVANT FOR 
             ALL TYPES OF MODIFIED TRIANGULAR AND TETRAHEDRAL ELEMENTS. THIS 
             WARNING CAN BE IGNORED IF THE FEATURE IS APPLIED TO THESE ELEMENT 
             TYPES ONLY.
  *solidsection, elset=ASSEMBLY_PART-1-1_SET-1, controls=EC-1, material=MATERIAL-1
  *boundary
  *boundary
  *boundary
  *boundary
  *output, field, variable=PRESELECT
  *output, history, variable=PRESELECT
  *output, field, variable=PRESELECT
  *output, history, variable=PRESELECT
  *output, field, variable=PRESELECT
  *output, history, variable=PRESELECT
  *Step, name=Step-1, nlgeom=YES
  *output, field, variable=PRESELECT
  *output, history, variable=PRESELECT
  *Step, name=Step-1, nlgeom=YES
  *Step, name=Step-1, nlgeom=YES
  *static
  *boundary
  *boundary
  *output, field, variable=PRESELECT
  *output, history, variable=PRESELECT
  *nodeprint
  *elprint, position=CENTROIDAL

 ***WARNING: OUTPUT REQUEST DG IS ONLY AVAILABLE FOR *HYPERELASTIC/FOAM AND 
             *USER MATERIAL.
  *elprint, elset=ASSEMBLY_BC-SET-1, position=CENTROIDAL
  *elprint, elset=ASSEMBLY_BC-SET-2, position=CENTROIDAL
  *endstep
  *Step, name=Step-1, nlgeom=YES
  *static
  *boundary
  *boundary
  *endstep

 ***NOTE: Boundary conditions are specified on inactive dof of 186 nodes. The 
          nodes have been identified in node set WarnNodeBCInactiveDof.


                              E L E M E N T,   N O D E,   A N D   S U R F A C E   M A P S


**NOTE: This section may not include complete information about
        members of sets and surfaces. Use *PREPRINT, MODEL=YES 
        in order to get the set and surface members printed    
        under the following sections:                          
            - E L E M E N T   S E T S                          
            - N O D E   S E T S                                
            - S U R F A C E   D E F I N I T I O N S .          


Assembly name: ASSEMBLY
Number of instances: 1

ASSEMBLY LEVEL
  node sets:
    BC-SET-1:
      instance name: PART-1-1
      number of nodes: 186
      nodes: 
        1 2 3 4 5 6 7 8 9 10 11 12 25 26 27 28 37 38 39 40 41 42 43 44
        45 46 47 48 61 62 63 64 78 79 80 81 82 83 84 85 86 87 93 94 95
        96 97 98 99 100 101 102 103 104 105 106 107 108 109 110 111 112
        113 114 115 116 141 142 143 144 145 146 147 148 162 177 178 191
        193 195 196 197 198 199 223 227 230 237 238 257 265 268 270 272
        286 288 290 306 310 311 313 315 317 322 350 354 355 369 383 409
        410 411 427 428 430 431 432 433 437 455 471 488 491 509 511 518
        519 526 531 551 555 556 621 629 638 640 644 658 659 686 698 703
        716 723 735 737 739 749 752 767 825 826 840 846 856 873 879 880
        887 888 896 900 907 912 916 918 922 961 972 974 975 979 980 986
        1002 1031 1037 1040 1079 1081 1091 1104 1119 1121 1124 1125

    BC-SET-2:
      instance name: PART-1-1
      number of nodes: 182
      nodes: 
        13 14 15 16 17 18 19 20 21 22 23 24 31 32 33 34 49 50 51 52 53
        54 55 56 57 58 59 60 67 68 69 70 73 74 75 76 77 88 89 90 91 92
        117 118 119 120 121 122 123 124 125 126 127 128 129 130 131 132
        133 134 135 136 137 138 139 140 151 152 153 154 155 156 157 158
        161 174 179 194 200 201 202 203 204 243 244 245 277 281 282 283
        295 302 305 328 341 342 343 345 347 349 356 362 366 389 398 404
        408 444 446 454 457 475 496 502 524 527 530 536 539 543 544 548
        562 565 567 570 573 574 593 603 606 610 632 635 648 664 667 676
        683 715 726 729 734 743 756 783 786 809 824 832 834 836 839 905
        919 920 929 930 933 934 936 942 945 952 953 958 959 989 991 994
        1020 1029 1043 1044 1047 1059 1066 1073 1085 1098 1099 1128

  element sets:
    BC-SET-1:
      instance name: PART-1-1
      number of elements: 274
      elements: 
        2 3 4 5 6 8 9 10 11 14 18 19 20 21 23 24 27 29 30 32 33 34 35 42
        43 46 47 48 49 54 55 58 59 63 64 67 68 69 71 73 75 77 78 81 82
        88 89 95 98 102 104 105 106 108 109 110 113 115 119 120 123 124
        125 126 127 128 131 132 134 135 141 142 143 145 146 157 159 163
        168 169 172 176 178 179 182 183 186 188 189 190 193 195 198 199
        200 201 202 203 207 208 209 211 212 216 217 218 219 220 222 224
        225 226 227 230 232 233 238 241 242 243 245 246 247 248 249 250
        253 258 260 261 262 263 264 265 267 268 270 271 272 274 275 276
        279 280 281 283 284 285 286 288 289 290 291 293 299 300 302 303
        306 307 308 309 313 314 316 320 321 322 323 324 325 329 332 336
        337 338 339 340 341 343 344 347 348 349 350 351 352 353 355 356
        357 358 359 360 361 362 363 364 365 369 370 371 374 375 376 380
        381 386 388 389 390 392 393 395 397 398 399 401 402 404 405 406
        410 411 418 419 420 422 423 424 425 426 429 431 433 434 436 437
        438 439 440 441 442 443 444 449 450 451 455 456 460 461 463 468
        471 474 476 477 478 479 484 485 489 492 493 494 495 496 497 499
        501 502 505 506

    BC-SET-2:
      instance name: PART-1-1
      number of elements: 273
      elements: 
        7 12 13 15 16 17 21 22 23 24 25 26 28 29 31 34 35 36 37 38 39 40
        41 44 45 50 51 52 53 55 57 59 60 61 65 66 70 72 74 76 79 80 83
        84 85 86 87 90 91 92 93 94 95 96 97 98 99 100 101 103 107 109
        111 112 114 116 117 118 121 122 129 130 133 136 137 138 139 140
        144 147 148 149 150 151 152 153 154 155 156 158 161 162 164 165
        166 167 170 171 172 173 174 175 177 181 184 185 187 191 192 194
        195 196 197 201 204 205 206 210 213 214 215 221 223 228 229 231
        234 235 236 237 240 243 244 246 251 252 253 254 255 256 257 259
        260 266 269 273 277 278 279 282 284 287 288 292 294 295 296 297
        298 299 301 304 305 308 310 311 312 315 317 318 319 323 326 327
        328 329 330 331 333 334 335 340 342 344 345 346 354 360 366 367
        368 369 370 372 373 374 375 377 378 379 382 383 384 385 387 391
        392 394 396 398 399 400 401 403 407 408 409 410 412 413 414 416
        417 419 420 421 422 427 428 430 432 434 435 437 445 446 447 448
        451 452 453 454 457 458 459 462 464 465 466 467 469 470 472 473
        475 476 479 480 481 482 483 485 486 487 488 490 498 500 501 502
        503 504 505

  Surfaces:

INSTANCE LEVEL
  node sets:
    Instance name: PART-1-1
      node set name: SET-1
        number of nodes: 1129
        nodes: 
          1 2 3 4 5 6 7 8 9 10 11 12 13 14 15 16 17 18 19 20 21 22 23 24
          25 26 27 28 29 30 31 32 33 34 35 36 37 38 39 40 41 42 43 44 45
          46 47 48 49 50 51 52 53 54 55 56 57 58 59 60 61 62 63 64 65 66
          67 68 69 70 71 72 73 74 75 76 77 78 79 80 81 82 83 84 85 86 87
          88 89 90 91 92 93 94 95 96 97 98 99 100 101 102 103 104 105
          106 107 108 109 110 111 112 113 114 115 116 117 118 119 120
          121 122 123 124 125 126 127 128 129 130 131 132 133 134 135
          136 137 138 139 140 141 142 143 144 145 146 147 148 149 150
          151 152 153 154 155 156 157 158 159 160 161 162 163 164 165
          166 167 168 169 170 171 172 173 174 175 176 177 178 179 180
          181 182 183 184 185 186 187 188 189 190 191 192 193 194 195
          196 197 198 199 200 201 202 203 204 205 206 207 208 209 210
          211 212 213 214 215 216 217 218 219 220 221 222 223 224 225
          226 227 228 229 230 231 232 233 234 235 236 237 238 239 240
          241 242 243 244 245 246 247 248 249 250 251 252 253 254 255
          256 257 258 259 260 261 262 263 264 265 266 267 268 269 270
          271 272 273 274 275 276 277 278 279 280 281 282 283 284 285
          286 287 288 289 290 291 292 293 294 295 296 297 298 299 300
          301 302 303 304 305 306 307 308 309 310 311 312 313 314 315
          316 317 318 319 320 321 322 323 324 325 326 327 328 329 330
          331 332 333 334 335 336 337 338 339 340 341 342 343 344 345
          346 347 348 349 350 351 352 353 354 355 356 357 358 359 360
          361 362 363 364 365 366 367 368 369 370 371 372 373 374 375
          376 377 378 379 380 381 382 383 384 385 386 387 388 389 390
          391 392 393 394 395 396 397 398 399 400 401 402 403 404 405
          406 407 408 409 410 411 412 413 414 415 416 417 418 419 420
          421 422 423 424 425 426 427 428 429 430 431 432 433 434 435
          436 437 438 439 440 441 442 443 444 445 446 447 448 449 450
          451 452 453 454 455 456 457 458 459 460 461 462 463 464 465
          466 467 468 469 470 471 472 473 474 475 476 477 478 479 480
          481 482 483 484 485 486 487 488 489 490 491 492 493 494 495
          496 497 498 499 500 501 502 503 504 505 506 507 508 509 510
          511 512 513 514 515 516 517 518 519 520 521 522 523 524 525
          526 527 528 529 530 531 532 533 534 535 536 537 538 539 540
          541 542 543 544 545 546 547 548 549 550 551 552 553 554 555
          556 557 558 559 560 561 562 563 564 565 566 567 568 569 570
          571 572 573 574 575 576 577 578 579 580 581 582 583 584 585
          586 587 588 589 590 591 592 593 594 595 596 597 598 599 600
          601 602 603 604 605 606 607 608 609 610 611 612 613 614 615
          616 617 618 619 620 621 622 623 624 625 626 627 628 629 630
          631 632 633 634 635 636 637 638 639 640 641 642 643 644 645
          646 647 648 649 650 651 652 653 654 655 656 657 658 659 660
          661 662 663 664 665 666 667 668 669 670 671 672 673 674 675
          676 677 678 679 680 681 682 683 684 685 686 687 688 689 690
          691 692 693 694 695 696 697 698 699 700 701 702 703 704 705
          706 707 708 709 710 711 712 713 714 715 716 717 718 719 720
          721 722 723 724 725 726 727 728 729 730 731 732 733 734 735
          736 737 738 739 740 741 742 743 744 745 746 747 748 749 750
          751 752 753 754 755 756 757 758 759 760 761 762 763 764 765
          766 767 768 769 770 771 772 773 774 775 776 777 778 779 780
          781 782 783 784 785 786 787 788 789 790 791 792 793 794 795
          796 797 798 799 800 801 802 803 804 805 806 807 808 809 810
          811 812 813 814 815 816 817 818 819 820 821 822 823 824 825
          826 827 828 829 830 831 832 833 834 835 836 837 838 839 840
          841 842 843 844 845 846 847 848 849 850 851 852 853 854 855
          856 857 858 859 860 861 862 863 864 865 866 867 868 869 870
          871 872 873 874 875 876 877 878 879 880 881 882 883 884 885
          886 887 888 889 890 891 892 893 894 895 896 897 898 899 900
          901 902 903 904 905 906 907 908 909 910 911 912 913 914 915
          916 917 918 919 920 921 922 923 924 925 926 927 928 929 930
          931 932 933 934 935 936 937 938 939 940 941 942 943 944 945
          946 947 948 949 950 951 952 953 954 955 956 957 958 959 960
          961 962 963 964 965 966 967 968 969 970 971 972 973 974 975
          976 977 978 979 980 981 982 983 984 985 986 987 988 989 990
          991 992 993 994 995 996 997 998 999 1000 1001 1002 1003 1004
          1005 1006 1007 1008 1009 1010 1011 1012 1013 1014 1015 1016
          1017 1018 1019 1020 1021 1022 1023 1024 1025 1026 1027 1028
          1029 1030 1031 1032 1033 1034 1035 1036 1037 1038 1039 1040
          1041 1042 1043 1044 1045 1046 1047 1048 1049 1050 1051 1052
          1053 1054 1055 1056 1057 1058 1059 1060 1061 1062 1063 1064
          1065 1066 1067 1068 1069 1070 1071 1072 1073 1074 1075 1076
          1077 1078 1079 1080 1081 1082 1083 1084 1085 1086 1087 1088
          1089 1090 1091 1092 1093 1094 1095 1096 1097 1098 1099 1100
          1101 1102 1103 1104 1105 1106 1107 1108 1109 1110 1111 1112
          1113 1114 1115 1116 1117 1118 1119 1120 1121 1122 1123 1124
          1125 1126 1127 1128 1129

  element sets:
    Instance name: PART-1-1
      element set name: SET-1
        number of elements: 506
        elements: 
          1 2 3 4 5 6 7 8 9 10 11 12 13 14 15 16 17 18 19 20 21 22 23 24
          25 26 27 28 29 30 31 32 33 34 35 36 37 38 39 40 41 42 43 44 45
          46 47 48 49 50 51 52 53 54 55 56 57 58 59 60 61 62 63 64 65 66
          67 68 69 70 71 72 73 74 75 76 77 78 79 80 81 82 83 84 85 86 87
          88 89 90 91 92 93 94 95 96 97 98 99 100 101 102 103 104 105
          106 107 108 109 110 111 112 113 114 115 116 117 118 119 120
          121 122 123 124 125 126 127 128 129 130 131 132 133 134 135
          136 137 138 139 140 141 142 143 144 145 146 147 148 149 150
          151 152 153 154 155 156 157 158 159 160 161 162 163 164 165
          166 167 168 169 170 171 172 173 174 175 176 177 178 179 180
          181 182 183 184 185 186 187 188 189 190 191 192 193 194 195
          196 197 198 199 200 201 202 203 204 205 206 207 208 209 210
          211 212 213 214 215 216 217 218 219 220 221 222 223 224 225
          226 227 228 229 230 231 232 233 234 235 236 237 238 239 240
          241 242 243 244 245 246 247 248 249 250 251 252 253 254 255
          256 257 258 259 260 261 262 263 264 265 266 267 268 269 270
          271 272 273 274 275 276 277 278 279 280 281 282 283 284 285
          286 287 288 289 290 291 292 293 294 295 296 297 298 299 300
          301 302 303 304 305 306 307 308 309 310 311 312 313 314 315
          316 317 318 319 320 321 322 323 324 325 326 327 328 329 330
          331 332 333 334 335 336 337 338 339 340 341 342 343 344 345
          346 347 348 349 350 351 352 353 354 355 356 357 358 359 360
          361 362 363 364 365 366 367 368 369 370 371 372 373 374 375
          376 377 378 379 380 381 382 383 384 385 386 387 388 389 390
          391 392 393 394 395 396 397 398 399 400 401 402 403 404 405
          406 407 408 409 410 411 412 413 414 415 416 417 418 419 420
          421 422 423 424 425 426 427 428 429 430 431 432 433 434 435
          436 437 438 439 440 441 442 443 444 445 446 447 448 449 450
          451 452 453 454 455 456 457 458 459 460 461 462 463 464 465
          466 467 468 469 470 471 472 473 474 475 476 477 478 479 480
          481 482 483 484 485 486 487 488 489 490 491 492 493 494 495
          496 497 498 499 500 501 502 503 504 505 506

  Surfaces:

GLOBAL TO LOCAL NODE AND ELEMENT MAPS
  Global     Local      
  node       node       
  number     number     
                        Instance name                                   
   1          1         PART-1-1                                        
   2          2         PART-1-1                                        
   3          3         PART-1-1                                        
   4          4         PART-1-1                                        
   5          5         PART-1-1                                        
   6          6         PART-1-1                                        
   7          7         PART-1-1                                        
   8          8         PART-1-1                                        
   9          9         PART-1-1                                        
   10         10        PART-1-1                                        
   11         11        PART-1-1                                        
   12         12        PART-1-1                                        
   13         13        PART-1-1                                        
   14         14        PART-1-1                                        
   15         15        PART-1-1                                        
   16         16        PART-1-1                                        
   17         17        PART-1-1                                        
   18         18        PART-1-1                                        
   19         19        PART-1-1                                        
   20         20        PART-1-1                                        
   21         21        PART-1-1                                        
   22         22        PART-1-1                                        
   23         23        PART-1-1                                        
   24         24        PART-1-1                                        
   25         25        PART-1-1                                        
   26         26        PART-1-1                                        
   27         27        PART-1-1                                        
   28         28        PART-1-1                                        
   29         29        PART-1-1                                        
   30         30        PART-1-1                                        
   31         31        PART-1-1                                        
   32         32        PART-1-1                                        
   33         33        PART-1-1                                        
   34         34        PART-1-1                                        
   35         35        PART-1-1                                        
   36         36        PART-1-1                                        
   37         37        PART-1-1                                        
   38         38        PART-1-1                                        
   39         39        PART-1-1                                        
   40         40        PART-1-1                                        
   41         41        PART-1-1                                        
   42         42        PART-1-1                                        
   43         43        PART-1-1                                        
   44         44        PART-1-1                                        
   45         45        PART-1-1                                        
   46         46        PART-1-1                                        
   47         47        PART-1-1                                        
   48         48        PART-1-1                                        
   49         49        PART-1-1                                        
   50         50        PART-1-1                                        
   51         51        PART-1-1                                        
   52         52        PART-1-1                                        
   53         53        PART-1-1                                        
   54         54        PART-1-1                                        
   55         55        PART-1-1                                        
   56         56        PART-1-1                                        
   57         57        PART-1-1                                        
   58         58        PART-1-1                                        
   59         59        PART-1-1                                        
   60         60        PART-1-1                                        
   61         61        PART-1-1                                        
   62         62        PART-1-1                                        
   63         63        PART-1-1                                        
   64         64        PART-1-1                                        
   65         65        PART-1-1                                        
   66         66        PART-1-1                                        
   67         67        PART-1-1                                        
   68         68        PART-1-1                                        
   69         69        PART-1-1                                        
   70         70        PART-1-1                                        
   71         71        PART-1-1                                        
   72         72        PART-1-1                                        
   73         73        PART-1-1                                        
   74         74        PART-1-1                                        
   75         75        PART-1-1                                        
   76         76        PART-1-1                                        
   77         77        PART-1-1                                        
   78         78        PART-1-1                                        
   79         79        PART-1-1                                        
   80         80        PART-1-1                                        
   81         81        PART-1-1                                        
   82         82        PART-1-1                                        
   83         83        PART-1-1                                        
   84         84        PART-1-1                                        
   85         85        PART-1-1                                        
   86         86        PART-1-1                                        
   87         87        PART-1-1                                        
   88         88        PART-1-1                                        
   89         89        PART-1-1                                        
   90         90        PART-1-1                                        
   91         91        PART-1-1                                        
   92         92        PART-1-1                                        
   93         93        PART-1-1                                        
   94         94        PART-1-1                                        
   95         95        PART-1-1                                        
   96         96        PART-1-1                                        
   97         97        PART-1-1                                        
   98         98        PART-1-1                                        
   99         99        PART-1-1                                        
   100        100       PART-1-1                                        
   101        101       PART-1-1                                        
   102        102       PART-1-1                                        
   103        103       PART-1-1                                        
   104        104       PART-1-1                                        
   105        105       PART-1-1                                        
   106        106       PART-1-1                                        
   107        107       PART-1-1                                        
   108        108       PART-1-1                                        
   109        109       PART-1-1                                        
   110        110       PART-1-1                                        
   111        111       PART-1-1                                        
   112        112       PART-1-1                                        
   113        113       PART-1-1                                        
   114        114       PART-1-1                                        
   115        115       PART-1-1                                        
   116        116       PART-1-1                                        
   117        117       PART-1-1                                        
   118        118       PART-1-1                                        
   119        119       PART-1-1                                        
   120        120       PART-1-1                                        
   121        121       PART-1-1                                        
   122        122       PART-1-1                                        
   123        123       PART-1-1                                        
   124        124       PART-1-1                                        
   125        125       PART-1-1                                        
   126        126       PART-1-1                                        
   127        127       PART-1-1                                        
   128        128       PART-1-1                                        
   129        129       PART-1-1                                        
   130        130       PART-1-1                                        
   131        131       PART-1-1                                        
   132        132       PART-1-1                                        
   133        133       PART-1-1                                        
   134        134       PART-1-1                                        
   135        135       PART-1-1                                        
   136        136       PART-1-1                                        
   137        137       PART-1-1                                        
   138        138       PART-1-1                                        
   139        139       PART-1-1                                        
   140        140       PART-1-1                                        
   141        141       PART-1-1                                        
   142        142       PART-1-1                                        
   143        143       PART-1-1                                        
   144        144       PART-1-1                                        
   145        145       PART-1-1                                        
   146        146       PART-1-1                                        
   147        147       PART-1-1                                        
   148        148       PART-1-1                                        
   149        149       PART-1-1                                        
   150        150       PART-1-1                                        
   151        151       PART-1-1                                        
   152        152       PART-1-1                                        
   153        153       PART-1-1                                        
   154        154       PART-1-1                                        
   155        155       PART-1-1                                        
   156        156       PART-1-1                                        
   157        157       PART-1-1                                        
   158        158       PART-1-1                                        
   159        159       PART-1-1                                        
   160        160       PART-1-1                                        
   161        161       PART-1-1                                        
   162        162       PART-1-1                                        
   163        163       PART-1-1                                        
   164        164       PART-1-1                                        
   165        165       PART-1-1                                        
   166        166       PART-1-1                                        
   167        167       PART-1-1                                        
   168        168       PART-1-1                                        
   169        169       PART-1-1                                        
   170        170       PART-1-1                                        
   171        171       PART-1-1                                        
   172        172       PART-1-1                                        
   173        173       PART-1-1                                        
   174        174       PART-1-1                                        
   175        175       PART-1-1                                        
   176        176       PART-1-1                                        
   177        177       PART-1-1                                        
   178        178       PART-1-1                                        
   179        179       PART-1-1                                        
   180        180       PART-1-1                                        
   181        181       PART-1-1                                        
   182        182       PART-1-1                                        
   183        183       PART-1-1                                        
   184        184       PART-1-1                                        
   185        185       PART-1-1                                        
   186        186       PART-1-1                                        
   187        187       PART-1-1                                        
   188        188       PART-1-1                                        
   189        189       PART-1-1                                        
   190        190       PART-1-1                                        
   191        191       PART-1-1                                        
   192        192       PART-1-1                                        
   193        193       PART-1-1                                        
   194        194       PART-1-1                                        
   195        195       PART-1-1                                        
   196        196       PART-1-1                                        
   197        197       PART-1-1                                        
   198        198       PART-1-1                                        
   199        199       PART-1-1                                        
   200        200       PART-1-1                                        
   201        201       PART-1-1                                        
   202        202       PART-1-1                                        
   203        203       PART-1-1                                        
   204        204       PART-1-1                                        
   205        205       PART-1-1                                        
   206        206       PART-1-1                                        
   207        207       PART-1-1                                        
   208        208       PART-1-1                                        
   209        209       PART-1-1                                        
   210        210       PART-1-1                                        
   211        211       PART-1-1                                        
   212        212       PART-1-1                                        
   213        213       PART-1-1                                        
   214        214       PART-1-1                                        
   215        215       PART-1-1                                        
   216        216       PART-1-1                                        
   217        217       PART-1-1                                        
   218        218       PART-1-1                                        
   219        219       PART-1-1                                        
   220        220       PART-1-1                                        
   221        221       PART-1-1                                        
   222        222       PART-1-1                                        
   223        223       PART-1-1                                        
   224        224       PART-1-1                                        
   225        225       PART-1-1                                        
   226        226       PART-1-1                                        
   227        227       PART-1-1                                        
   228        228       PART-1-1                                        
   229        229       PART-1-1                                        
   230        230       PART-1-1                                        
   231        231       PART-1-1                                        
   232        232       PART-1-1                                        
   233        233       PART-1-1                                        
   234        234       PART-1-1                                        
   235        235       PART-1-1                                        
   236        236       PART-1-1                                        
   237        237       PART-1-1                                        
   238        238       PART-1-1                                        
   239        239       PART-1-1                                        
   240        240       PART-1-1                                        
   241        241       PART-1-1                                        
   242        242       PART-1-1                                        
   243        243       PART-1-1                                        
   244        244       PART-1-1                                        
   245        245       PART-1-1                                        
   246        246       PART-1-1                                        
   247        247       PART-1-1                                        
   248        248       PART-1-1                                        
   249        249       PART-1-1                                        
   250        250       PART-1-1                                        
   251        251       PART-1-1                                        
   252        252       PART-1-1                                        
   253        253       PART-1-1                                        
   254        254       PART-1-1                                        
   255        255       PART-1-1                                        
   256        256       PART-1-1                                        
   257        257       PART-1-1                                        
   258        258       PART-1-1                                        
   259        259       PART-1-1                                        
   260        260       PART-1-1                                        
   261        261       PART-1-1                                        
   262        262       PART-1-1                                        
   263        263       PART-1-1                                        
   264        264       PART-1-1                                        
   265        265       PART-1-1                                        
   266        266       PART-1-1                                        
   267        267       PART-1-1                                        
   268        268       PART-1-1                                        
   269        269       PART-1-1                                        
   270        270       PART-1-1                                        
   271        271       PART-1-1                                        
   272        272       PART-1-1                                        
   273        273       PART-1-1                                        
   274        274       PART-1-1                                        
   275        275       PART-1-1                                        
   276        276       PART-1-1                                        
   277        277       PART-1-1                                        
   278        278       PART-1-1                                        
   279        279       PART-1-1                                        
   280        280       PART-1-1                                        
   281        281       PART-1-1                                        
   282        282       PART-1-1                                        
   283        283       PART-1-1                                        
   284        284       PART-1-1                                        
   285        285       PART-1-1                                        
   286        286       PART-1-1                                        
   287        287       PART-1-1                                        
   288        288       PART-1-1                                        
   289        289       PART-1-1                                        
   290        290       PART-1-1                                        
   291        291       PART-1-1                                        
   292        292       PART-1-1                                        
   293        293       PART-1-1                                        
   294        294       PART-1-1                                        
   295        295       PART-1-1                                        
   296        296       PART-1-1                                        
   297        297       PART-1-1                                        
   298        298       PART-1-1                                        
   299        299       PART-1-1                                        
   300        300       PART-1-1                                        
   301        301       PART-1-1                                        
   302        302       PART-1-1                                        
   303        303       PART-1-1                                        
   304        304       PART-1-1                                        
   305        305       PART-1-1                                        
   306        306       PART-1-1                                        
   307        307       PART-1-1                                        
   308        308       PART-1-1                                        
   309        309       PART-1-1                                        
   310        310       PART-1-1                                        
   311        311       PART-1-1                                        
   312        312       PART-1-1                                        
   313        313       PART-1-1                                        
   314        314       PART-1-1                                        
   315        315       PART-1-1                                        
   316        316       PART-1-1                                        
   317        317       PART-1-1                                        
   318        318       PART-1-1                                        
   319        319       PART-1-1                                        
   320        320       PART-1-1                                        
   321        321       PART-1-1                                        
   322        322       PART-1-1                                        
   323        323       PART-1-1                                        
   324        324       PART-1-1                                        
   325        325       PART-1-1                                        
   326        326       PART-1-1                                        
   327        327       PART-1-1                                        
   328        328       PART-1-1                                        
   329        329       PART-1-1                                        
   330        330       PART-1-1                                        
   331        331       PART-1-1                                        
   332        332       PART-1-1                                        
   333        333       PART-1-1                                        
   334        334       PART-1-1                                        
   335        335       PART-1-1                                        
   336        336       PART-1-1                                        
   337        337       PART-1-1                                        
   338        338       PART-1-1                                        
   339        339       PART-1-1                                        
   340        340       PART-1-1                                        
   341        341       PART-1-1                                        
   342        342       PART-1-1                                        
   343        343       PART-1-1                                        
   344        344       PART-1-1                                        
   345        345       PART-1-1                                        
   346        346       PART-1-1                                        
   347        347       PART-1-1                                        
   348        348       PART-1-1                                        
   349        349       PART-1-1                                        
   350        350       PART-1-1                                        
   351        351       PART-1-1                                        
   352        352       PART-1-1                                        
   353        353       PART-1-1                                        
   354        354       PART-1-1                                        
   355        355       PART-1-1                                        
   356        356       PART-1-1                                        
   357        357       PART-1-1                                        
   358        358       PART-1-1                                        
   359        359       PART-1-1                                        
   360        360       PART-1-1                                        
   361        361       PART-1-1                                        
   362        362       PART-1-1                                        
   363        363       PART-1-1                                        
   364        364       PART-1-1                                        
   365        365       PART-1-1                                        
   366        366       PART-1-1                                        
   367        367       PART-1-1                                        
   368        368       PART-1-1                                        
   369        369       PART-1-1                                        
   370        370       PART-1-1                                        
   371        371       PART-1-1                                        
   372        372       PART-1-1                                        
   373        373       PART-1-1                                        
   374        374       PART-1-1                                        
   375        375       PART-1-1                                        
   376        376       PART-1-1                                        
   377        377       PART-1-1                                        
   378        378       PART-1-1                                        
   379        379       PART-1-1                                        
   380        380       PART-1-1                                        
   381        381       PART-1-1                                        
   382        382       PART-1-1                                        
   383        383       PART-1-1                                        
   384        384       PART-1-1                                        
   385        385       PART-1-1                                        
   386        386       PART-1-1                                        
   387        387       PART-1-1                                        
   388        388       PART-1-1                                        
   389        389       PART-1-1                                        
   390        390       PART-1-1                                        
   391        391       PART-1-1                                        
   392        392       PART-1-1                                        
   393        393       PART-1-1                                        
   394        394       PART-1-1                                        
   395        395       PART-1-1                                        
   396        396       PART-1-1                                        
   397        397       PART-1-1                                        
   398        398       PART-1-1                                        
   399        399       PART-1-1                                        
   400        400       PART-1-1                                        
   401        401       PART-1-1                                        
   402        402       PART-1-1                                        
   403        403       PART-1-1                                        
   404        404       PART-1-1                                        
   405        405       PART-1-1                                        
   406        406       PART-1-1                                        
   407        407       PART-1-1                                        
   408        408       PART-1-1                                        
   409        409       PART-1-1                                        
   410        410       PART-1-1                                        
   411        411       PART-1-1                                        
   412        412       PART-1-1                                        
   413        413       PART-1-1                                        
   414        414       PART-1-1                                        
   415        415       PART-1-1                                        
   416        416       PART-1-1                                        
   417        417       PART-1-1                                        
   418        418       PART-1-1                                        
   419        419       PART-1-1                                        
   420        420       PART-1-1                                        
   421        421       PART-1-1                                        
   422        422       PART-1-1                                        
   423        423       PART-1-1                                        
   424        424       PART-1-1                                        
   425        425       PART-1-1                                        
   426        426       PART-1-1                                        
   427        427       PART-1-1                                        
   428        428       PART-1-1                                        
   429        429       PART-1-1                                        
   430        430       PART-1-1                                        
   431        431       PART-1-1                                        
   432        432       PART-1-1                                        
   433        433       PART-1-1                                        
   434        434       PART-1-1                                        
   435        435       PART-1-1                                        
   436        436       PART-1-1                                        
   437        437       PART-1-1                                        
   438        438       PART-1-1                                        
   439        439       PART-1-1                                        
   440        440       PART-1-1                                        
   441        441       PART-1-1                                        
   442        442       PART-1-1                                        
   443        443       PART-1-1                                        
   444        444       PART-1-1                                        
   445        445       PART-1-1                                        
   446        446       PART-1-1                                        
   447        447       PART-1-1                                        
   448        448       PART-1-1                                        
   449        449       PART-1-1                                        
   450        450       PART-1-1                                        
   451        451       PART-1-1                                        
   452        452       PART-1-1                                        
   453        453       PART-1-1                                        
   454        454       PART-1-1                                        
   455        455       PART-1-1                                        
   456        456       PART-1-1                                        
   457        457       PART-1-1                                        
   458        458       PART-1-1                                        
   459        459       PART-1-1                                        
   460        460       PART-1-1                                        
   461        461       PART-1-1                                        
   462        462       PART-1-1                                        
   463        463       PART-1-1                                        
   464        464       PART-1-1                                        
   465        465       PART-1-1                                        
   466        466       PART-1-1                                        
   467        467       PART-1-1                                        
   468        468       PART-1-1                                        
   469        469       PART-1-1                                        
   470        470       PART-1-1                                        
   471        471       PART-1-1                                        
   472        472       PART-1-1                                        
   473        473       PART-1-1                                        
   474        474       PART-1-1                                        
   475        475       PART-1-1                                        
   476        476       PART-1-1                                        
   477        477       PART-1-1                                        
   478        478       PART-1-1                                        
   479        479       PART-1-1                                        
   480        480       PART-1-1                                        
   481        481       PART-1-1                                        
   482        482       PART-1-1                                        
   483        483       PART-1-1                                        
   484        484       PART-1-1                                        
   485        485       PART-1-1                                        
   486        486       PART-1-1                                        
   487        487       PART-1-1                                        
   488        488       PART-1-1                                        
   489        489       PART-1-1                                        
   490        490       PART-1-1                                        
   491        491       PART-1-1                                        
   492        492       PART-1-1                                        
   493        493       PART-1-1                                        
   494        494       PART-1-1                                        
   495        495       PART-1-1                                        
   496        496       PART-1-1                                        
   497        497       PART-1-1                                        
   498        498       PART-1-1                                        
   499        499       PART-1-1                                        
   500        500       PART-1-1                                        
   501        501       PART-1-1                                        
   502        502       PART-1-1                                        
   503        503       PART-1-1                                        
   504        504       PART-1-1                                        
   505        505       PART-1-1                                        
   506        506       PART-1-1                                        
   507        507       PART-1-1                                        
   508        508       PART-1-1                                        
   509        509       PART-1-1                                        
   510        510       PART-1-1                                        
   511        511       PART-1-1                                        
   512        512       PART-1-1                                        
   513        513       PART-1-1                                        
   514        514       PART-1-1                                        
   515        515       PART-1-1                                        
   516        516       PART-1-1                                        
   517        517       PART-1-1                                        
   518        518       PART-1-1                                        
   519        519       PART-1-1                                        
   520        520       PART-1-1                                        
   521        521       PART-1-1                                        
   522        522       PART-1-1                                        
   523        523       PART-1-1                                        
   524        524       PART-1-1                                        
   525        525       PART-1-1                                        
   526        526       PART-1-1                                        
   527        527       PART-1-1                                        
   528        528       PART-1-1                                        
   529        529       PART-1-1                                        
   530        530       PART-1-1                                        
   531        531       PART-1-1                                        
   532        532       PART-1-1                                        
   533        533       PART-1-1                                        
   534        534       PART-1-1                                        
   535        535       PART-1-1                                        
   536        536       PART-1-1                                        
   537        537       PART-1-1                                        
   538        538       PART-1-1                                        
   539        539       PART-1-1                                        
   540        540       PART-1-1                                        
   541        541       PART-1-1                                        
   542        542       PART-1-1                                        
   543        543       PART-1-1                                        
   544        544       PART-1-1                                        
   545        545       PART-1-1                                        
   546        546       PART-1-1                                        
   547        547       PART-1-1                                        
   548        548       PART-1-1                                        
   549        549       PART-1-1                                        
   550        550       PART-1-1                                        
   551        551       PART-1-1                                        
   552        552       PART-1-1                                        
   553        553       PART-1-1                                        
   554        554       PART-1-1                                        
   555        555       PART-1-1                                        
   556        556       PART-1-1                                        
   557        557       PART-1-1                                        
   558        558       PART-1-1                                        
   559        559       PART-1-1                                        
   560        560       PART-1-1                                        
   561        561       PART-1-1                                        
   562        562       PART-1-1                                        
   563        563       PART-1-1                                        
   564        564       PART-1-1                                        
   565        565       PART-1-1                                        
   566        566       PART-1-1                                        
   567        567       PART-1-1                                        
   568        568       PART-1-1                                        
   569        569       PART-1-1                                        
   570        570       PART-1-1                                        
   571        571       PART-1-1                                        
   572        572       PART-1-1                                        
   573        573       PART-1-1                                        
   574        574       PART-1-1                                        
   575        575       PART-1-1                                        
   576        576       PART-1-1                                        
   577        577       PART-1-1                                        
   578        578       PART-1-1                                        
   579        579       PART-1-1                                        
   580        580       PART-1-1                                        
   581        581       PART-1-1                                        
   582        582       PART-1-1                                        
   583        583       PART-1-1                                        
   584        584       PART-1-1                                        
   585        585       PART-1-1                                        
   586        586       PART-1-1                                        
   587        587       PART-1-1                                        
   588        588       PART-1-1                                        
   589        589       PART-1-1                                        
   590        590       PART-1-1                                        
   591        591       PART-1-1                                        
   592        592       PART-1-1                                        
   593        593       PART-1-1                                        
   594        594       PART-1-1                                        
   595        595       PART-1-1                                        
   596        596       PART-1-1                                        
   597        597       PART-1-1                                        
   598        598       PART-1-1                                        
   599        599       PART-1-1                                        
   600        600       PART-1-1                                        
   601        601       PART-1-1                                        
   602        602       PART-1-1                                        
   603        603       PART-1-1                                        
   604        604       PART-1-1                                        
   605        605       PART-1-1                                        
   606        606       PART-1-1                                        
   607        607       PART-1-1                                        
   608        608       PART-1-1                                        
   609        609       PART-1-1                                        
   610        610       PART-1-1                                        
   611        611       PART-1-1                                        
   612        612       PART-1-1                                        
   613        613       PART-1-1                                        
   614        614       PART-1-1                                        
   615        615       PART-1-1                                        
   616        616       PART-1-1                                        
   617        617       PART-1-1                                        
   618        618       PART-1-1                                        
   619        619       PART-1-1                                        
   620        620       PART-1-1                                        
   621        621       PART-1-1                                        
   622        622       PART-1-1                                        
   623        623       PART-1-1                                        
   624        624       PART-1-1                                        
   625        625       PART-1-1                                        
   626        626       PART-1-1                                        
   627        627       PART-1-1                                        
   628        628       PART-1-1                                        
   629        629       PART-1-1                                        
   630        630       PART-1-1                                        
   631        631       PART-1-1                                        
   632        632       PART-1-1                                        
   633        633       PART-1-1                                        
   634        634       PART-1-1                                        
   635        635       PART-1-1                                        
   636        636       PART-1-1                                        
   637        637       PART-1-1                                        
   638        638       PART-1-1                                        
   639        639       PART-1-1                                        
   640        640       PART-1-1                                        
   641        641       PART-1-1                                        
   642        642       PART-1-1                                        
   643        643       PART-1-1                                        
   644        644       PART-1-1                                        
   645        645       PART-1-1                                        
   646        646       PART-1-1                                        
   647        647       PART-1-1                                        
   648        648       PART-1-1                                        
   649        649       PART-1-1                                        
   650        650       PART-1-1                                        
   651        651       PART-1-1                                        
   652        652       PART-1-1                                        
   653        653       PART-1-1                                        
   654        654       PART-1-1                                        
   655        655       PART-1-1                                        
   656        656       PART-1-1                                        
   657        657       PART-1-1                                        
   658        658       PART-1-1                                        
   659        659       PART-1-1                                        
   660        660       PART-1-1                                        
   661        661       PART-1-1                                        
   662        662       PART-1-1                                        
   663        663       PART-1-1                                        
   664        664       PART-1-1                                        
   665        665       PART-1-1                                        
   666        666       PART-1-1                                        
   667        667       PART-1-1                                        
   668        668       PART-1-1                                        
   669        669       PART-1-1                                        
   670        670       PART-1-1                                        
   671        671       PART-1-1                                        
   672        672       PART-1-1                                        
   673        673       PART-1-1                                        
   674        674       PART-1-1                                        
   675        675       PART-1-1                                        
   676        676       PART-1-1                                        
   677        677       PART-1-1                                        
   678        678       PART-1-1                                        
   679        679       PART-1-1                                        
   680        680       PART-1-1                                        
   681        681       PART-1-1                                        
   682        682       PART-1-1                                        
   683        683       PART-1-1                                        
   684        684       PART-1-1                                        
   685        685       PART-1-1                                        
   686        686       PART-1-1                                        
   687        687       PART-1-1                                        
   688        688       PART-1-1                                        
   689        689       PART-1-1                                        
   690        690       PART-1-1                                        
   691        691       PART-1-1                                        
   692        692       PART-1-1                                        
   693        693       PART-1-1                                        
   694        694       PART-1-1                                        
   695        695       PART-1-1                                        
   696        696       PART-1-1                                        
   697        697       PART-1-1                                        
   698        698       PART-1-1                                        
   699        699       PART-1-1                                        
   700        700       PART-1-1                                        
   701        701       PART-1-1                                        
   702        702       PART-1-1                                        
   703        703       PART-1-1                                        
   704        704       PART-1-1                                        
   705        705       PART-1-1                                        
   706        706       PART-1-1                                        
   707        707       PART-1-1                                        
   708        708       PART-1-1                                        
   709        709       PART-1-1                                        
   710        710       PART-1-1                                        
   711        711       PART-1-1                                        
   712        712       PART-1-1                                        
   713        713       PART-1-1                                        
   714        714       PART-1-1                                        
   715        715       PART-1-1                                        
   716        716       PART-1-1                                        
   717        717       PART-1-1                                        
   718        718       PART-1-1                                        
   719        719       PART-1-1                                        
   720        720       PART-1-1                                        
   721        721       PART-1-1                                        
   722        722       PART-1-1                                        
   723        723       PART-1-1                                        
   724        724       PART-1-1                                        
   725        725       PART-1-1                                        
   726        726       PART-1-1                                        
   727        727       PART-1-1                                        
   728        728       PART-1-1                                        
   729        729       PART-1-1                                        
   730        730       PART-1-1                                        
   731        731       PART-1-1                                        
   732        732       PART-1-1                                        
   733        733       PART-1-1                                        
   734        734       PART-1-1                                        
   735        735       PART-1-1                                        
   736        736       PART-1-1                                        
   737        737       PART-1-1                                        
   738        738       PART-1-1                                        
   739        739       PART-1-1                                        
   740        740       PART-1-1                                        
   741        741       PART-1-1                                        
   742        742       PART-1-1                                        
   743        743       PART-1-1                                        
   744        744       PART-1-1                                        
   745        745       PART-1-1                                        
   746        746       PART-1-1                                        
   747        747       PART-1-1                                        
   748        748       PART-1-1                                        
   749        749       PART-1-1                                        
   750        750       PART-1-1                                        
   751        751       PART-1-1                                        
   752        752       PART-1-1                                        
   753        753       PART-1-1                                        
   754        754       PART-1-1                                        
   755        755       PART-1-1                                        
   756        756       PART-1-1                                        
   757        757       PART-1-1                                        
   758        758       PART-1-1                                        
   759        759       PART-1-1                                        
   760        760       PART-1-1                                        
   761        761       PART-1-1                                        
   762        762       PART-1-1                                        
   763        763       PART-1-1                                        
   764        764       PART-1-1                                        
   765        765       PART-1-1                                        
   766        766       PART-1-1                                        
   767        767       PART-1-1                                        
   768        768       PART-1-1                                        
   769        769       PART-1-1                                        
   770        770       PART-1-1                                        
   771        771       PART-1-1                                        
   772        772       PART-1-1                                        
   773        773       PART-1-1                                        
   774        774       PART-1-1                                        
   775        775       PART-1-1                                        
   776        776       PART-1-1                                        
   777        777       PART-1-1                                        
   778        778       PART-1-1                                        
   779        779       PART-1-1                                        
   780        780       PART-1-1                                        
   781        781       PART-1-1                                        
   782        782       PART-1-1                                        
   783        783       PART-1-1                                        
   784        784       PART-1-1                                        
   785        785       PART-1-1                                        
   786        786       PART-1-1                                        
   787        787       PART-1-1                                        
   788        788       PART-1-1                                        
   789        789       PART-1-1                                        
   790        790       PART-1-1                                        
   791        791       PART-1-1                                        
   792        792       PART-1-1                                        
   793        793       PART-1-1                                        
   794        794       PART-1-1                                        
   795        795       PART-1-1                                        
   796        796       PART-1-1                                        
   797        797       PART-1-1                                        
   798        798       PART-1-1                                        
   799        799       PART-1-1                                        
   800        800       PART-1-1                                        
   801        801       PART-1-1                                        
   802        802       PART-1-1                                        
   803        803       PART-1-1                                        
   804        804       PART-1-1                                        
   805        805       PART-1-1                                        
   806        806       PART-1-1                                        
   807        807       PART-1-1                                        
   808        808       PART-1-1                                        
   809        809       PART-1-1                                        
   810        810       PART-1-1                                        
   811        811       PART-1-1                                        
   812        812       PART-1-1                                        
   813        813       PART-1-1                                        
   814        814       PART-1-1                                        
   815        815       PART-1-1                                        
   816        816       PART-1-1                                        
   817        817       PART-1-1                                        
   818        818       PART-1-1                                        
   819        819       PART-1-1                                        
   820        820       PART-1-1                                        
   821        821       PART-1-1                                        
   822        822       PART-1-1                                        
   823        823       PART-1-1                                        
   824        824       PART-1-1                                        
   825        825       PART-1-1                                        
   826        826       PART-1-1                                        
   827        827       PART-1-1                                        
   828        828       PART-1-1                                        
   829        829       PART-1-1                                        
   830        830       PART-1-1                                        
   831        831       PART-1-1                                        
   832        832       PART-1-1                                        
   833        833       PART-1-1                                        
   834        834       PART-1-1                                        
   835        835       PART-1-1                                        
   836        836       PART-1-1                                        
   837        837       PART-1-1                                        
   838        838       PART-1-1                                        
   839        839       PART-1-1                                        
   840        840       PART-1-1                                        
   841        841       PART-1-1                                        
[...]
        746      1.5437974E+00  1.4455196E-02  6.5626502E-03
        747      8.1016702E-01  1.5128747E-02  3.4975042E-02
        748      2.9965275E+00  1.9843577E-03 -3.2392882E-03
        749      3.0000000E+00  0.0000000E+00  0.0000000E+00
        750      2.9750729E+00 -2.5058162E-03  2.1759397E-03
        751      2.9944581E+00  5.6660290E-03  1.1484403E-02
        752      3.0000000E+00  0.0000000E+00  0.0000000E+00
        753      8.3017123E-01  1.0676008E-02 -1.9028193E-02
        754      7.6465310E-01  6.7231331E-03 -4.8350092E-02
        755      5.7802585E-03 -1.7280201E-03 -5.2507028E-04
        757      1.9916385E-01 -3.4484350E-02 -4.8079791E-02
        758      1.7324707E-01 -5.9163067E-02 -7.3160873E-03
        759      8.6874533E-01  2.8464187E-03 -3.8391066E-02
        760      1.1296114E-01  3.2873578E-02 -4.4248463E-02
        761      6.3719426E-02 -1.1409513E-02 -5.9814814E-02
        762      1.2538917E-01 -1.1321742E-02 -1.6650647E-03
        763      3.3011393E-01  2.1100852E-02  5.0930166E-02
        764      1.6073760E+00  2.6897710E-02 -3.0178863E-02
        765      2.2729087E+00 -4.7492586E-04 -4.6020423E-02
        766      1.1728321E+00 -5.7600054E-01  8.4561403E-03
        767      3.0000000E+00  0.0000000E+00  0.0000000E+00
        768      2.2043515E+00 -1.1353506E-01  1.1009608E-01
        769      2.1976995E+00 -1.0158283E-01  1.8378655E-02
        770      2.2201240E+00 -2.4466120E-02  4.6528253E-02
        771      2.8044001E+00 -1.0549755E-01  1.8783696E-03
        772      2.8697734E+00 -8.6063178E-02  7.3389578E-02
        773      9.2051617E-01  4.8156375E-02 -2.0020654E-02
        774      1.4379242E+00 -1.0502870E-02 -2.7760325E-02
        775      9.6852864E-01  5.5562532E-03 -4.2734272E-02
        776      2.0064677E+00 -1.8938522E-02 -1.5161901E-02
        777      1.4793269E+00 -9.7284698E-03 -2.7420900E-02
        778      1.9480978E+00  2.0817620E-02 -2.4223643E-02
        779      7.5072629E-01  1.1270378E-03 -7.7308682E-03
        780      7.7751240E-01  1.4990331E-03 -2.9306470E-02
        785      2.5499346E+00  1.6137005E-01  1.5433787E-02
        787      2.6409863E-01 -5.7804629E-02  8.7062872E-03
        788      5.6590107E-02  6.0862016E-02 -7.5465941E-03
        789      5.5546465E-02  9.4848411E-03 -4.0107161E-03
        790      1.2323195E-01 -4.0123977E-02 -3.5280446E-02
        791      1.2768330E-01 -4.5627951E-02 -8.5517583E-03
        792      2.2640820E+00 -2.2304531E-01 -1.7657688E-01
        793      2.5947542E-01 -4.0242157E-01  4.1593203E-03
        794      5.3691277E-01 -7.7704017E-01 -2.3940884E-02
        795     -2.3268807E-01 -4.3936769E-01 -4.6783160E-03
        796     -1.2056595E-01 -5.5448246E-01  6.1225218E-02
        797     -2.4625163E-01 -3.5426198E-01 -3.7278722E-02
        798      3.9546693E-02 -4.8853388E-02  1.5243178E-03
        799      3.1352973E-01  2.7876489E-02 -2.7016664E-02
        800      1.3788450E-01 -1.2177691E-01 -2.5084729E-02
        801      1.4882170E+00 -3.5420605E-01  3.8724552E-02
        802      7.5771708E-01 -4.9188955E-02  2.3827617E-02
        803      1.5077193E+00 -3.7661669E-02  4.2640305E-02
        804      2.1920125E+00 -1.8149327E-01  3.8561895E-02
        805      7.9625793E-01 -1.6275705E-01  2.9772498E-02
        806      1.1849454E+00 -5.8582614E-01 -4.8670915E-02
        807      1.3879850E+00 -9.3762794E-01 -7.2017867E-02
        808      4.1980415E-02 -9.6074344E-03 -4.4902606E-03
        810      3.9281507E-02 -4.7320162E-02 -5.0406954E-03
        811      2.2602090E+00  6.8533504E-02  4.3203812E-02
        812      2.0627527E+00  2.0215998E-01  3.4955677E-02
        813      2.3126557E+00  6.1527222E-01 -4.3410169E-02
        814      1.9890741E+00  3.9010936E-01  2.2279873E-02
        815      7.9732817E-02  1.0051665E-01 -1.7612627E-02
        816      2.6087015E-01  3.7450016E-01 -1.5675685E-01
        817      3.5240899E-01  3.7949521E-01 -3.6096143E-02
        818      1.9624932E+00  2.4035347E-01 -3.4990369E-02
        819      2.5738685E+00  1.6916779E-01 -1.6956702E-02
        820      2.3137989E+00  6.0151162E-01  5.4989462E-02
        821      1.6167340E+00  7.3554147E-01 -4.8431089E-03
        822      6.1267585E-02  1.1891042E-01 -7.5603917E-02
        823      6.4174408E-02  1.3234715E-01 -4.6196820E-02
        825      3.0000000E+00  0.0000000E+00  0.0000000E+00
        826      3.0000000E+00  0.0000000E+00  0.0000000E+00
        827      3.0000000E+00  0.0000000E+00  0.0000000E+00
        828      3.0000000E+00  0.0000000E+00  0.0000000E+00
        829      3.0000000E+00  0.0000000E+00  0.0000000E+00
        830      2.6262058E+00  6.5879471E-02 -5.0002854E-03
        840      3.0000000E+00  0.0000000E+00  0.0000000E+00
        841      3.0000000E+00  0.0000000E+00  0.0000000E+00
        842      3.0000000E+00  0.0000000E+00  0.0000000E+00
        843      3.0000000E+00  0.0000000E+00  0.0000000E+00
        844      2.4664902E-01  7.4447764E-02  2.3287295E-02
        845      1.7980994E-01  1.0016209E-01 -2.2831791E-02
        846      3.0000000E+00  0.0000000E+00  0.0000000E+00
        847      2.9131662E+00 -6.2500457E-02 -4.3797129E-02
        848      2.7513625E+00 -8.7981357E-02  8.0596197E-03
        849      2.8600084E+00 -3.1922808E-02  2.5595307E-02
        850      2.6197613E+00 -2.0144664E-03  6.5002588E-02
        851      2.6660611E+00 -4.0953800E-03 -1.9405386E-02
        852      2.9626624E+00 -1.4842365E-02 -1.8208518E-02
        853      2.8816736E+00 -1.1652807E-02  6.9106957E-03
        854      2.9104626E+00  5.2533316E-02  1.8266727E-02
        855      2.8805024E+00  6.0397205E-02  6.1485431E-02
        856      3.0000000E+00  0.0000000E+00  0.0000000E+00
        857      2.8602140E+00  1.2782057E-02  9.2082527E-03
        858      2.6643902E+00  1.3776948E-03  2.6320633E-02
        859      2.8734023E+00  2.4191398E-02 -4.3968766E-03
        860      9.2545005E-02  3.2246175E-03 -5.0888967E-02
        861      9.1066093E-01 -1.4176537E-03  1.9257455E-02
        862      2.9144366E+00 -6.4465265E-02 -1.4707788E-02
        863      2.9932492E+00  4.7567253E-03 -3.6478246E-03
        864      2.9756425E+00 -9.1408481E-03 -1.3891357E-02
        865      1.8917357E+00 -3.6586403E-01 -1.4243156E-01
        866      1.0303234E-01  8.8065045E-02 -4.0422791E-02
        867      8.6474107E-01 -1.0818526E-02 -2.6416966E-02
        868      8.2879316E-01 -3.0120140E-02 -3.4603849E-02
        869      2.5907056E+00  1.3736969E-02 -5.4952413E-02
        870      2.6282942E+00  1.0474797E-02  1.2648318E-02
        871      3.1102393E+00 -6.0742934E-01 -2.2788995E-03
        872      3.2017324E+00 -4.4901213E-01  7.3774160E-02
        873      3.0000000E+00  0.0000000E+00  0.0000000E+00
        874      3.1979021E+00 -4.8792248E-01 -2.7784595E-02
        875      1.2567177E+00  3.1192595E-02  2.2065843E-02
        876      5.1742780E-01 -3.1989243E-03 -6.9292244E-02
        877      2.0318605E+00 -9.8819357E-02  7.5957454E-02
        878      3.0000000E+00  0.0000000E+00  0.0000000E+00
        879      3.0000000E+00  0.0000000E+00  0.0000000E+00
        880      3.0000000E+00  0.0000000E+00  0.0000000E+00
        881      1.1326138E-01 -6.9813713E-02 -1.0457349E-02
        882      5.8469100E-01  3.0363035E-02 -1.1641044E-02
        883      2.8301992E+00 -3.8237739E-02 -4.3674355E-03
        884      2.9763678E+00 -4.3531672E-03 -1.9909648E-02
        885      2.9016638E+00 -5.1370960E-02  2.5318403E-02
        886      2.2733794E+00 -2.1126092E-01  1.5077759E-01
        887      3.0000000E+00  0.0000000E+00  0.0000000E+00
        888      3.0000000E+00  0.0000000E+00  0.0000000E+00
        889      3.0015097E+00 -8.4392215E-03 -5.2318909E-03
        890      8.2021361E-01  7.5512119E-02 -4.9507624E-02
        891      2.2605179E+00 -9.8653969E-02  8.1301137E-02
        892      1.4890466E+00  3.8399251E-02  1.7553017E-02
        893      2.2585838E+00 -2.0383463E-02  2.4623661E-02
        894      1.5245983E+00 -5.9178341E-02  3.5125032E-02
        895      2.9738575E+00 -2.3441692E-02 -5.3331890E-02
        896      3.0000000E+00  0.0000000E+00  0.0000000E+00
        897      2.7270975E+00  3.5048510E-01  4.9411955E-02
        898      2.8965298E+00  8.8158355E-02  1.9558845E-03
        899      2.2352255E+00 -2.3721872E-03  2.7804011E-02
        900      3.0000000E+00  0.0000000E+00  0.0000000E+00
        901      2.6967459E+00  3.2790806E-01 -4.7479706E-02
        902      1.1291168E-01  7.6006833E-02  1.0203533E-02
        906      2.8647675E+00  5.9176023E-02  8.9665051E-03
        907      3.0000000E+00  0.0000000E+00  0.0000000E+00
        908      2.9578490E+00  3.9208476E-02 -9.4824368E-03
        909      2.9698762E+00  7.0937448E-03 -4.1142830E-03
        910      2.9532678E+00 -5.6138840E-03 -5.3384987E-03
        911      2.9150053E+00 -4.9122819E-02  3.8849172E-02
        912      3.0000000E+00  0.0000000E+00  0.0000000E+00
        913      2.8932470E+00 -3.2963947E-02 -3.1980650E-02
        914      3.0000000E+00  0.0000000E+00  0.0000000E+00
        915      3.0000000E+00  0.0000000E+00  0.0000000E+00
        916      3.0000000E+00  0.0000000E+00  0.0000000E+00
        917      3.0000000E+00  0.0000000E+00  0.0000000E+00
        918      3.0000000E+00  0.0000000E+00  0.0000000E+00
        922      3.0000000E+00  0.0000000E+00  0.0000000E+00
        923      3.0131846E+00  1.1242932E-01  2.1076457E-01
        924      2.8576988E+00  3.3524417E-01  1.5781259E-01
        925      3.0772655E+00 -2.0235342E-02 -1.4481508E-02
        926      3.0837897E+00 -3.9419170E-02 -4.8810349E-02
        927      2.9870565E+00 -3.9798220E-02  1.3505201E-02
        928      2.9606587E+00  2.0061936E-02  4.5622253E-03
        931      1.1697246E-01  1.3348542E-01  1.2007572E-02
        939      3.7860060E-01  6.5220822E-02  4.6281598E-02
        940      1.5623851E+00  7.8930495E-01 -1.5552814E-02
        941      1.1643007E+00  4.3142446E-01  1.1114216E-02
        943      1.9526852E+00  3.7160834E-03 -3.2190652E-03
        944     -2.5027265E-01 -3.1218217E-01  7.3549120E-02
        946      2.2404578E+00  4.6134703E-03  2.5619247E-02
        947      7.6305321E-01  1.6605425E-02  4.0330524E-03
        948      2.2554344E+00  6.3921092E-02  3.6620322E-02
        949      2.8024031E+00 -8.0649905E-02 -3.0493538E-02
        950      7.4986182E-01 -8.1153738E-03 -5.0964897E-03
        951      7.8801111E-01 -1.8530281E-02 -8.3528229E-03
        954      1.1357209E-01  5.7202666E-02 -3.2290117E-02
        955      1.0456889E-01 -2.4343492E-03 -7.7521361E-03
        960      2.9932032E+00  1.0949744E-02 -3.9849477E-03
        961      3.0000000E+00  0.0000000E+00  0.0000000E+00
        962      3.0000000E+00  0.0000000E+00  0.0000000E+00
        963      2.1135307E+00 -2.0207068E-02 -1.4875778E-02
        964      7.5925220E-02 -1.2225525E-02 -5.7292394E-02
        965      2.1224041E+00 -4.4846087E-02 -2.5611879E-02
        966      2.6465305E+00  7.2095629E-03 -3.1002572E-02
        967      3.0000000E+00  0.0000000E+00  0.0000000E+00
        968      8.0558689E-01  9.1933256E-02  1.9682610E-02
        969      1.0458431E+00  2.8573371E-01  1.0198803E-01
        970      3.0000000E+00  0.0000000E+00  0.0000000E+00
        971      3.0000000E+00  0.0000000E+00  0.0000000E+00
        972      3.0000000E+00  0.0000000E+00  0.0000000E+00
        973      3.0000000E+00  0.0000000E+00  0.0000000E+00
        974      3.0000000E+00  0.0000000E+00  0.0000000E+00
        975      3.0000000E+00  0.0000000E+00  0.0000000E+00
        976      3.0000000E+00  0.0000000E+00  0.0000000E+00
        977     -4.4945655E-03 -3.4196887E-03  6.7482081E-02
        978      2.9120260E+00 -4.1749419E-02 -5.4011858E-03
        979      3.0000000E+00  0.0000000E+00  0.0000000E+00
        980      3.0000000E+00  0.0000000E+00  0.0000000E+00
        981      1.4245446E+00  5.6246341E-02  1.0018450E-02
        982      1.2211368E+00  7.3696167E-03  1.3682557E-03
        983      2.9741226E+00 -7.1658301E-01  1.1465005E-01
        984      3.1782035E+00 -5.6529851E-01  8.5673726E-02
        985      3.1430556E+00 -6.8491706E-01  1.2555850E-01
        986      3.0000000E+00  0.0000000E+00  0.0000000E+00
        987      8.0909934E-01 -7.3799395E-02  5.2436483E-03
        988      1.5114965E+00 -7.5034088E-03 -4.8120091E-03
        990      2.1658385E+00 -7.4998789E-03  1.7347119E-02
        995      6.7778357E-02 -1.4492711E-02 -2.2638308E-02
        996      4.9008710E-02 -5.3498464E-02 -2.7122156E-02
        997      1.0514037E-01 -3.3026716E-02 -6.5252501E-02
        998      1.2751295E-01 -8.7083611E-02 -2.2824719E-02
       1000      3.0000000E+00  0.0000000E+00  0.0000000E+00
       1001      3.0000000E+00  0.0000000E+00  0.0000000E+00
       1002      3.0000000E+00  0.0000000E+00  0.0000000E+00
       1003      3.0000000E+00  0.0000000E+00  0.0000000E+00
       1004      7.3858276E-01  1.7533898E-02  7.4160039E-02
       1005      3.1544437E-01  4.6924255E-02  6.4926222E-02
       1006      2.4254527E+00  9.3825086E-02  6.1575607E-03
       1007      5.9439710E-01  1.8231306E-01  1.3408442E-01
       1008      8.0990707E-01  1.1196833E-01  9.3289078E-02
       1009      1.7778322E-01 -5.7065738E-02  2.2006295E-02
       1010      4.3472209E-02 -2.6963244E-02 -2.9810722E-02
       1011     -1.0292899E-01 -7.5915723E-02  5.1333159E-02
       1012      6.5542670E-02  4.8292219E-03 -3.6783575E-02
       1013      1.6883532E+00 -1.4247834E-01  1.6782372E-02
       1014     -9.1180284E-02  4.7413828E-02  3.3506344E-02
       1015      2.0956771E+00  2.7358800E-02  5.0234432E-02
       1016      3.0000000E+00  0.0000000E+00  0.0000000E+00
       1017      2.1957717E+00  1.2361026E-02  1.6511619E-02
       1018      6.3197737E-02  1.5689159E-03 -4.7136143E-02
       1019     -2.4339312E-01 -4.1425773E-01  5.9204107E-02
       1021     -2.5217974E-01 -4.6412672E-01  4.1991930E-02
       1022      9.5613910E-01  3.8910850E-02  7.7919582E-03
       1023     -2.2407786E-01 -3.2338854E-01  8.1718795E-03
       1024      2.9639136E+00 -6.3232678E-01  1.7364899E-02
       1025      2.5462144E+00 -5.8300349E-01  1.5123431E-01
       1026      3.2187361E+00 -5.3224182E-01  4.0400138E-02
       1027      2.8488542E+00 -7.3980360E-02  2.5273552E-02
       1028      1.8943587E+00  9.7361921E-03  8.6628514E-03
       1030      2.8313696E+00 -4.9472955E-02 -4.4834890E-02
       1031      3.0000000E+00  0.0000000E+00  0.0000000E+00
       1032      3.0000000E+00  0.0000000E+00  0.0000000E+00
       1033      2.9461977E+00 -8.0600798E-03  7.3426253E-03
       1034      3.0000000E+00  0.0000000E+00  0.0000000E+00
       1035      3.0000000E+00  0.0000000E+00  0.0000000E+00
       1036      3.0000000E+00  0.0000000E+00  0.0000000E+00
       1037      3.0000000E+00  0.0000000E+00  0.0000000E+00
       1038      3.0000000E+00  0.0000000E+00  0.0000000E+00
       1039      2.7233201E+00  6.6364697E-02  1.2444664E-02
       1040      3.0000000E+00  0.0000000E+00  0.0000000E+00
       1041      2.0938669E+00  6.0324662E-03 -2.2245191E-03
       1042      1.5229950E-01  6.1780173E-02 -2.9246249E-02
       1048      4.8024534E-01 -4.3859186E-02 -6.7892972E-02
       1049      2.8399853E+00 -3.7109203E-02 -3.4608186E-03
       1050      1.3827108E-01  1.4482538E-01  1.1193860E-02
       1051      4.4119778E-01  6.4659470E-03 -3.9052097E-05
       1052      6.7856225E-01 -7.3329982E-04  5.1421219E-02
       1053      1.9211980E+00 -3.8283787E-01  1.6548237E-01
       1054      8.6063141E-02 -3.7402739E-03 -4.1081673E-02
       1055      3.7961793E-02  1.5036902E-02 -4.4732697E-02
       1056      2.9886831E+00 -5.7250613E-03  6.8798498E-03
       1057      3.0000000E+00  0.0000000E+00  0.0000000E+00
       1058      3.0000000E+00  0.0000000E+00  0.0000000E+00
       1060      2.3297375E+00  1.5196225E-02 -5.2866988E-03
       1061      2.2177204E+00 -1.5106337E-03 -8.9662279E-03
       1062      2.6604877E+00  7.7091923E-04 -4.2185196E-02
       1063      1.8924370E+00 -1.0394191E-02 -1.1790860E-02
       1064      6.8593223E-01  4.9016286E-02 -4.3089192E-02
       1068      1.5033266E+00 -7.5014790E-04 -6.7993323E-03
       1070      9.0156845E-01  2.2753355E-02 -7.7241228E-02
       1071      8.0267066E-01  1.2549626E-02 -8.3659237E-02
       1072      7.0461163E-01  1.0013434E-01 -7.6778707E-02
       1074      1.4309269E+00  2.7136984E-02  9.8741836E-03
       1075      3.9275096E-02  7.5285451E-02 -2.8051081E-02
       1076      2.2163486E+00  1.6394940E-02  6.8159379E-03
       1077      2.3726292E+00 -4.3408099E-02 -2.0457085E-02
       1078      2.8176455E+00  6.6553734E-03 -4.5956640E-02
       1079      3.0000000E+00  0.0000000E+00  0.0000000E+00
       1080      3.0000000E+00  0.0000000E+00  0.0000000E+00
       1081      3.0000000E+00  0.0000000E+00  0.0000000E+00
       1082      3.0000000E+00  0.0000000E+00  0.0000000E+00
       1086      2.2115603E+00  5.8357521E-02  3.3146465E-02
       1087      3.5730202E-01  4.7728912E-02 -6.4630376E-02
       1088      3.0000000E+00  0.0000000E+00  0.0000000E+00
       1089      3.0000000E+00  0.0000000E+00  0.0000000E+00
       1090      3.0000000E+00  0.0000000E+00  0.0000000E+00
       1091      3.0000000E+00  0.0000000E+00  0.0000000E+00
       1092      3.0000000E+00  0.0000000E+00  0.0000000E+00
       1093      3.0000000E+00  0.0000000E+00  0.0000000E+00
       1094      2.9877786E+00  3.5182378E-03 -2.1102916E-02
       1095      2.9825144E+00 -3.7096309E-02 -5.0612322E-02
       1096     -8.7385745E-03  2.2785747E-02 -3.5238730E-02
       1097     -1.9899244E-02  3.2973077E-02 -1.7436022E-01
       1100     -1.1739246E-01 -2.8357493E-02 -5.3646941E-02
       1101      3.0223456E+00 -1.1649122E-02 -2.1301336E-02
       1103      1.1173554E-02  1.6337565E-01 -2.4220981E-01
       1104      3.0000000E+00  0.0000000E+00  0.0000000E+00
       1105      7.5903837E-01 -4.8286174E-02 -5.6926236E-02
       1106      2.3362665E-01 -6.5340843E-02  3.3329349E-02
       1107      2.8484307E+00 -7.9642141E-02 -4.7658309E-02
       1108     -1.1978589E-02  4.5243160E-02 -2.2578253E-02
       1109      3.7302906E-01  1.4886708E-01 -1.0855431E-01
       1110      7.7358045E-01 -1.4825765E-01 -5.0349183E-02
       1111      2.7730443E+00 -9.2816435E-02  1.3502244E-02
       1112     -3.1463586E-02  8.5943679E-02 -6.4123309E-02
       1113     -4.0931999E-02  5.5571880E-02 -3.9941603E-02
       1114      2.8357563E+00  2.2590552E-02 -6.2781492E-03
       1115      1.3476094E-01  9.1175265E-02  2.0773978E-02
       1116      2.2353379E-01  1.1448924E-01 -2.6794831E-02
       1117      1.5775537E+00  7.1823989E-01  8.6459485E-02
       1118      3.0000000E+00  0.0000000E+00  0.0000000E+00
       1119      3.0000000E+00  0.0000000E+00  0.0000000E+00
       1120      3.0000000E+00  0.0000000E+00  0.0000000E+00
       1121      3.0000000E+00  0.0000000E+00  0.0000000E+00
       1122      3.2432925E+00 -6.1067607E-01 -1.4411898E-01
       1123      3.0393454E+00 -7.1958857E-01 -1.4638793E-01
       1124      3.0000000E+00  0.0000000E+00  0.0000000E+00
       1125      3.0000000E+00  0.0000000E+00  0.0000000E+00
       1126     -2.7339826E-01 -4.5002199E-01 -1.0777362E-01
       1127     -1.3994991E-01 -5.0639590E-01 -6.6656097E-02
       1129      1.0861663E+00 -3.6930406E-01  2.8593602E-02

 MAXIMUM          3.243      0.7893      0.2499    
 AT NODE              1122         940         677

 MINIMUM        -0.2734     -0.9464     -0.2422    
 AT NODE              1126         583        1103


          THE ANALYSIS HAS BEEN COMPLETED



                              ANALYSIS COMPLETE
                              WITH      3 WARNING MESSAGES ON THE DAT FILE



     JOB TIME SUMMARY
       USER TIME (SEC)      =   1.1000    
       SYSTEM TIME (SEC)    =  0.30000    
       TOTAL CPU TIME (SEC) =   1.4000    
       WALLCLOCK TIME (SEC) =          1
