1

   Abaqus 2021                                  Date 20-Jul-2023   Time 13:38:35
   For use by UNIVERSITY OF MICHIGAN under license from Dassault Systemes or its subsidiary.



                         The Abaqus Software is a product of:

                           Dassault Systemes SIMULIA Corp.
                           1301 Atwood Avenue, Suite 101W
                              Johnston, RI 02919, USA
 


                   The Abaqus Software is available only under license
                   from Dassault Systemes or its subsidiary and may be
                   used or reproduced only in accordance with the terms
                   of such license.
 
                          On machine ME-ESTRADALAB04 
                          you are authorized to run
                          Abaqus/Standard until 31-Jul-2024

                          Your site id is: 200000000004058 


 
                    For assistance or any other information you may
                    obtain contact information for your local office
                    from the world wide web at:

                      http://www.3ds.com/products/simulia/locations/

 
                * * * * * * * * * * * * * * * * * * * * * * * * * * * * * * 
                *                                                         * 
                *                   *****************                     * 
                *                   *  N O T I C E  *                     * 
                *                   *****************                     * 
                *                                                         * 
                *                                                         * 
                *                       Abaqus 2021                       * 
                *                                                         * 
                *          BUILD ID: 2020_03_06-09.50.37 167380           * 
                *                                                         * 
                *                                                         * 
                *  Please make sure you are using                         * 
                *  release Abaqus 2021 manuals                            * 
                *  plus the notes accompanying this release.              * 
                *                                                         * 
                *                                                         * 
                *                                                         * 
                *                                                         * 
                *                                                         * 
                *   This program may not be used for commercial purposes  * 
                *           without payment of a commercial fee.          * 
                *                                                         * 
                * * * * * * * * * * * * * * * * * * * * * * * * * * * * * * 


 



     PROCESSING PART, INSTANCE, AND ASSEMBLY INFORMATION
   *******************************************************


     END PROCESSING PART, INSTANCE, AND ASSEMBLY INFORMATION
   ***********************************************************




     OPTIONS BEING PROCESSED
   ***************************


  *Heading
  *Node
  *Element, type=C3D4H
  *Nset, nset=ASSEMBLY_PART-1-1_SET-1
  *Elset, elset=ASSEMBLY_PART-1-1_SET-1
  *Nset, nset=ASSEMBLY_BC-SET-1
  *Nset, nset=ASSEMBLY_BC-SET-2
  *Elset, elset=ASSEMBLY_BC-SET-1
  *Elset, elset=ASSEMBLY_BC-SET-2
  *material, name=MATERIAL-1
  *hyperelastic, neohooke
  *solidsection, elset=ASSEMBLY_PART-1-1_SET-1, controls=EC-1, material=MATERIAL-1
  *sectioncontrols, name=EC-1, hourglass=ENHANCED

 ***WARNING: THE PARAMETER HOURGLASS = ENHANCED ON THE SECTION CONTROLS OPTION 
             IS RELEVANT FOR THESE ELEMENTS: C3D8R, CAX4R, CGAX4R, CPEG4R, 
             CPE4R, CPS4R, M3D4R, S4R, SC8R AND THEIR HYBRID, THERMAL AND 
             PRESSURE COUNTERPARTS WHEREVER APPLICABLE. IT IS ALSO RELEVANT FOR 
             ALL TYPES OF MODIFIED TRIANGULAR AND TETRAHEDRAL ELEMENTS. THIS 
             WARNING CAN BE IGNORED IF THE FEATURE IS APPLIED TO THESE ELEMENT 
             TYPES ONLY.
  *solidsection, elset=ASSEMBLY_PART-1-1_SET-1, controls=EC-1, material=MATERIAL-1
  *boundary
  *boundary
  *boundary
  *boundary
  *output, field, variable=PRESELECT
  *output, history, variable=PRESELECT
  *output, field, variable=PRESELECT
  *output, history, variable=PRESELECT
  *output, field, variable=PRESELECT
  *output, history, variable=PRESELECT

 ***NOTE: C3D10HS AND HYBRID TETRAHEDRAL ELEMENTS WILL ENFORCE VOLUMETRIC 
          CONTINUITY ACROSS MATERIAL BOUNDARIES. IN ORDER TO ALLOW 
          DISCONTINUITIES IN THE VOLUMETRIC FIELD USE *TIE.
  
                               E L E M E N T   Q U A L I T Y  C H E C K S        
  
  
 ***NOTES: DISTORTED ISOPARAMETRIC ELEMENTS: ANGLE BETWEEN ISOPARAMETRIC LINES 
           IS LESS THAN 45 DEGREES OR GREATER THAN 135 DEGREES.
  
           TETRAHEDRAL QUALITY MEASURE: VOLUME OF TETRAHEDRON DIVIDED BY THE 
           VOLUME OF EQUILATERAL TETRAHEDRON WITH SAME CIRCUMSPHERE RADIUS; 
           0 FOR DEGENERATE TETRAHEDRON AND 1 FOR EQUILATERIAL TETRAHEDRON. IT 
           IS RECOMMENDED THAT THE TETRAHEDRAL QUALITY MEASURE BE GREATER THAN 
           0.02, THE MIN INTERIOR (DIHEDRAL) ANGLE BE GREATER THAN 10 DEGREES, 
           AND THE MAX INTERIOR (DIHEDRAL) ANGLE BE LESS THAN 160 DEGREES. 
  
           MODIFIED TETRAHEDRAL QUALITY MEASURE: ANGLES BETWEEN THE TWO LINE 
           SEGMENTS ON EACH EDGE; THE EDGES OF MODIFIED TETRAHEDRAL SHOULD BE 
           AS STRAIGHT AS POSSIBLE. IT IS RECOMMENDED THAT THE ANGLE BETWEEN 
           THE TWO LINE SEGMENTS ON EACH EDGE IS BETWEEN 160 AND 180 DEGREES. 
  
           TRIANGULAR QUALITY MEASURE: AREA OF TRIANGLE DIVIDED BY THE AREA OF 
           EQUILATERAL TRIANGLE WITH SAME CIRCUMCIRCLE RADIUS; 0 FOR DEGENERATE 
           TRIANGLE AND 1 FOR EQUILATERAL TRIANGLE. IT IS RECOMMENDED THAT THE
           TRIANGULAR QUALITY MEASURE BE GREATER THAN 0.01, THE MIN INTERIOR 
           ANGLE BE GREATER THAN 10 DEGREES, AND THE MAX INTERIOR ANGLE BE LESS 
           THAN 160 DEGREES. 
  
           NODAL ADJUSTMENTS ARISING FROM CONTACT INTERACTIONS AND/OR TIE 
           CONSTRAINTS CAN CAUSE SEVERE ELEMENT DISTORTION. IT MAY BE NECESSARY 
           TO REMESH IN ORDER TO REDUCE THE AMOUNT OF ADJUSTMENT. 

 ***WARNING: 2 elements are distorted. Either the isoparametric angles are out 
             of the suggested limits or the triangular or tetrahedral quality 
             measure is bad. The elements have been identified in element set 
             WarnElemDistorted.
  
 --------------------------------------------------------------------------------
 Distorted tetrahedral elements
  
      Element       Quality measure     Min angle        Max angle     Adjusted nodes 
 ------------------ ---------------- ---------------- ---------------- -------------- 
       PART-1-1.594         0.199484          8.81212          144.658       NO       
      PART-1-1.6949         0.126709          9.83131          144.601       NO       
  
  
  *Step, name=Step-1, nlgeom=YES
  *output, field, variable=PRESELECT
  *output, history, variable=PRESELECT
  *Step, name=Step-1, nlgeom=YES
  *Step, name=Step-1, nlgeom=YES
  *static
  *boundary
  *boundary
  *output, field, variable=PRESELECT
  *output, history, variable=PRESELECT
  *nodeprint
  *elprint, position=CENTROIDAL

 ***WARNING: OUTPUT REQUEST DG IS ONLY AVAILABLE FOR *HYPERELASTIC/FOAM AND 
             *USER MATERIAL.
  *nodeprint, nset=ASSEMBLY_BC-SET-1
  *nodeprint, nset=ASSEMBLY_BC-SET-2
  *endstep
  *Step, name=Step-1, nlgeom=YES
  *static
  *boundary
  *boundary
  *endstep

 ***NOTE: Boundary conditions are specified on inactive dof of 679 nodes. The 
          nodes have been identified in node set WarnNodeBCInactiveDof.


                              E L E M E N T,   N O D E,   A N D   S U R F A C E   M A P S


**NOTE: This section may not include complete information about
        members of sets and surfaces. Use *PREPRINT, MODEL=YES 
        in order to get the set and surface members printed    
        under the following sections:                          
            - E L E M E N T   S E T S                          
            - N O D E   S E T S                                
            - S U R F A C E   D E F I N I T I O N S .          


Assembly name: ASSEMBLY
Number of instances: 1

ASSEMBLY LEVEL
  node sets:
    BC-SET-1:
      instance name: PART-1-1
      number of nodes: 679
      nodes: 
        1 2 3 4 5 6 7 8 9 10 11 12 13 14 15 16 17 18 19 20 21 22 23 24
        25 26 27 28 29 30 31 32 33 34 35 36 37 38 39 40 41 42 43 44 45
        46 47 48 49 50 51 52 53 54 55 56 57 58 59 60 61 62 63 64 65 66
        67 68 69 70 71 72 73 74 75 76 77 78 79 80 81 82 83 84 85 86 87
        88 89 90 91 92 93 94 189 190 191 199 200 201 202 203 204 205 206
        207 208 209 210 211 212 213 214 215 216 217 218 219 220 221 222
        223 224 225 226 227 228 229 230 231 232 233 234 235 236 237 238
        239 240 241 242 243 244 245 246 247 248 249 250 251 252 253 254
        255 256 257 258 259 260 261 262 263 264 265 266 267 268 269 270
        271 272 273 274 275 276 277 278 279 280 281 282 283 284 285 286
        287 288 289 290 291 292 387 388 389 409 410 411 412 413 414 415
        416 417 418 419 420 421 422 423 424 425 426 427 428 429 430 431
        432 433 434 435 436 437 438 439 440 441 442 443 444 445 446 447
        448 449 450 451 452 453 454 455 456 457 458 459 460 461 462 463
        464 465 466 467 468 469 470 471 472 473 474 475 476 477 478 479
        480 481 482 483 484 485 486 487 488 489 490 491 492 493 494 495
        496 497 498 499 500 501 502 503 504 505 506 507 508 509 510 511
        512 513 514 515 516 517 518 519 520 521 522 523 524 525 526 527
        528 529 530 531 532 533 534 535 536 537 538 539 540 541 542 543
        544 545 546 547 548 549 550 551 552 553 554 555 556 557 558 559
        560 561 562 563 564 565 566 567 568 569 570 571 572 573 574 575
        576 577 578 579 580 581 582 583 584 585 586 587 588 589 590 591
        592 593 594 595 596 597 598 599 600 601 602 603 604 605 606 607
        608 609 610 611 612 613 614 615 616 617 618 619 620 621 622 623
        624 625 626 627 628 629 630 631 632 633 634 635 636 637 638 639
        640 641 642 643 644 645 646 647 648 649 650 651 652 653 654 655
        656 657 658 659 660 661 662 663 664 665 666 667 668 669 670 671
        672 673 674 675 676 677 678 679 680 681 682 683 684 685 686 687
        688 689 690 691 692 693 694 695 696 697 698 699 700 701 702 703
        704 705 706 707 708 709 710 711 712 713 714 715 716 717 718 719
        720 721 722 723 724 725 726 727 728 729 730 731 732 733 734 735
        736 737 738 739 740 741 742 743 744 745 746 747 748 749 750 751
        752 753 754 755 756 757 758 759 760 761 762 763 764 765 766 767
        768 769 770 771 772 773 774 775 776 777 778 779 780 781 782 783
        784 785 786 787 788 789 790 791 792 793 794 795 796 797 798 799
        800 801 802 803 804 805 806 807 808 809 810 811 812 813 814 815
        816 817 818 819 820 821 822 823 824 825 826 827 828 829 830 831
        832 833 834 835 836 837 838 839 840 841 842 843 844 845 846 847
        848 849 850 851 852 853 854 855 856 857 858 859 860 861 862 863
        864 865 866 867 868 869 870 871 872 873 874 875 876 877 878 1349
        1350 1351 1352 1353 1354 1355 1356 1357 1358 1359 1360 1361 1362
        1363

    BC-SET-2:
      instance name: PART-1-1
      number of nodes: 679
      nodes: 
        95 96 97 98 99 100 101 102 103 104 105 106 107 108 109 110 111
        112 113 114 115 116 117 118 119 120 121 122 123 124 125 126 127
        128 129 130 131 132 133 134 135 136 137 138 139 140 141 142 143
        144 145 146 147 148 149 150 151 152 153 154 155 156 157 158 159
        160 161 162 163 164 165 166 167 168 169 170 171 172 173 174 175
        176 177 178 179 180 181 182 183 184 185 186 187 188 194 195 196
        293 294 295 296 297 298 299 300 301 302 303 304 305 306 307 308
        309 310 311 312 313 314 315 316 317 318 319 320 321 322 323 324
        325 326 327 328 329 330 331 332 333 334 335 336 337 338 339 340
        341 342 343 344 345 346 347 348 349 350 351 352 353 354 355 356
        357 358 359 360 361 362 363 364 365 366 367 368 369 370 371 372
        373 374 375 376 377 378 379 380 381 382 383 384 385 386 392 393
        394 879 880 881 882 883 884 885 886 887 888 889 890 891 892 893
        894 895 896 897 898 899 900 901 902 903 904 905 906 907 908 909
        910 911 912 913 914 915 916 917 918 919 920 921 922 923 924 925
        926 927 928 929 930 931 932 933 934 935 936 937 938 939 940 941
        942 943 944 945 946 947 948 949 950 951 952 953 954 955 956 957
        958 959 960 961 962 963 964 965 966 967 968 969 970 971 972 973
        974 975 976 977 978 979 980 981 982 983 984 985 986 987 988 989
        990 991 992 993 994 995 996 997 998 999 1000 1001 1002 1003 1004
        1005 1006 1007 1008 1009 1010 1011 1012 1013 1014 1015 1016 1017
        1018 1019 1020 1021 1022 1023 1024 1025 1026 1027 1028 1029 1030
        1031 1032 1033 1034 1035 1036 1037 1038 1039 1040 1041 1042 1043
        1044 1045 1046 1047 1048 1049 1050 1051 1052 1053 1054 1055 1056
        1057 1058 1059 1060 1061 1062 1063 1064 1065 1066 1067 1068 1069
        1070 1071 1072 1073 1074 1075 1076 1077 1078 1079 1080 1081 1082
        1083 1084 1085 1086 1087 1088 1089 1090 1091 1092 1093 1094 1095
        1096 1097 1098 1099 1100 1101 1102 1103 1104 1105 1106 1107 1108
        1109 1110 1111 1112 1113 1114 1115 1116 1117 1118 1119 1120 1121
        1122 1123 1124 1125 1126 1127 1128 1129 1130 1131 1132 1133 1134
        1135 1136 1137 1138 1139 1140 1141 1142 1143 1144 1145 1146 1147
        1148 1149 1150 1151 1152 1153 1154 1155 1156 1157 1158 1159 1160
        1161 1162 1163 1164 1165 1166 1167 1168 1169 1170 1171 1172 1173
        1174 1175 1176 1177 1178 1179 1180 1181 1182 1183 1184 1185 1186
        1187 1188 1189 1190 1191 1192 1193 1194 1195 1196 1197 1198 1199
        1200 1201 1202 1203 1204 1205 1206 1207 1208 1209 1210 1211 1212
        1213 1214 1215 1216 1217 1218 1219 1220 1221 1222 1223 1224 1225
        1226 1227 1228 1229 1230 1231 1232 1233 1234 1235 1236 1237 1238
        1239 1240 1241 1242 1243 1244 1245 1246 1247 1248 1249 1250 1251
        1252 1253 1254 1255 1256 1257 1258 1259 1260 1261 1262 1263 1264
        1265 1266 1267 1268 1269 1270 1271 1272 1273 1274 1275 1276 1277
        1278 1279 1280 1281 1282 1283 1284 1285 1286 1287 1288 1289 1290
        1291 1292 1293 1294 1295 1296 1297 1298 1299 1300 1301 1302 1303
        1304 1305 1306 1307 1308 1309 1310 1311 1312 1313 1314 1315 1316
        1317 1318 1319 1320 1321 1322 1323 1324 1325 1326 1327 1328 1329
        1330 1331 1332 1333 1334 1335 1336 1337 1338 1339 1340 1341 1342
        1343 1344 1345 1346 1347 1348 1374 1375 1376 1377 1378 1379 1380
        1381 1382 1383 1384 1385 1386 1387 1388

  element sets:
    BC-SET-1:
      instance name: PART-1-1
      number of elements: 2416
      elements: 
        6 8 9 11 13 14 15 34 39 40 41 42 43 44 46 47 50 59 60 65 78 80
        81 82 86 101 102 103 106 107 108 114 115 116 121 141 150 151 181
        184 187 190 191 192 197 198 199 200 203 209 211 217 220 222 227
        231 239 240 241 242 243 250 257 259 265 267 303 318 326 331 332
        341 343 344 352 354 363 366 377 381 382 383 384 386 387 388 389
        393 398 406 408 409 410 417 419 434 436 441 451 452 453 454 455
        460 464 470 473 474 483 484 497 498 499 500 503 507 512 513 514
        526 537 548 556 558 559 574 577 580 588 594 598 599 601 604 606
        607 612 619 620 626 633 634 643 667 671 675 677 686 706 718 720
        739 741 744 745 746 747 748 760 761 767 768 784 790 792 799 801
        807 810 818 828 830 832 842 844 854 855 856 872 873 875 876 879
        881 882 883 884 890 899 907 912 932 936 939 943 958 962 967 982
        983 984 986 989 991 993 1024 1028 1035 1036 1039 1041 1043 1046
        1049 1051 1052 1055 1056 1057 1071 1077 1082 1084 1085 1086 1091
        1095 1096 1098 1099 1100 1102 1103 1104 1105 1106 1107 1114 1115
        1129 1130 1131 1133 1134 1135 1136 1142 1143 1144 1147 1150 1161
        1163 1165 1166 1168 1173 1180 1181 1183 1184 1185 1194 1215 1226
        1243 1244 1245 1251 1254 1266 1268 1269 1274 1279 1283 1296 1301
        1303 1327 1331 1332 1340 1342 1369 1370 1371 1372 1373 1374 1378
        1381 1383 1384 1386 1387 1394 1395 1396 1405 1408 1409 1410 1421
        1422 1425 1433 1441 1446 1447 1452 1455 1456 1460 1478 1480 1486
        1493 1498 1512 1513 1514 1515 1520 1526 1529 1541 1552 1554 1560
        1561 1569 1574 1575 1580 1581 1583 1584 1594 1615 1616 1619 1621
        1622 1623 1624 1629 1631 1636 1644 1649 1653 1654 1661 1681 1682
        1689 1704 1705 1707 1708 1709 1710 1717 1737 1745 1754 1765 1766
        1769 1771 1772 1777 1783 1785 1786 1791 1795 1796 1801 1807 1816
        1818 1827 1830 1831 1832 1834 1843 1846 1850 1851 1852 1853 1854
        1856 1857 1858 1859 1860 1864 1868 1872 1880 1897 1899 1904 1905
        1910 1917 1920 1922 1923 1924 1960 1962 1964 1965 1966 1975 1976
        1978 1992 2007 2009 2013 2015 2057 2060 2061 2071 2085 2086 2088
        2089 2090 2092 2107 2118 2119 2120 2127 2155 2157 2165 2190 2200
        2204 2211 2212 2237 2244 2247 2261 2269 2280 2285 2287 2288 2289
        2295 2309 2311 2312 2317 2323 2324 2329 2333 2336 2340 2354 2364
        2372 2376 2377 2379 2380 2382 2383 2384 2385 2386 2389 2390 2391
        2392 2394 2395 2403 2419 2421 2423 2425 2427 2429 2430 2436 2437
        2440 2459 2466 2472 2473 2474 2477 2478 2481 2482 2484 2485 2492
        2499 2527 2528 2538 2541 2542 2543 2544 2549 2551 2558 2563 2565
        2573 2574 2575 2577 2590 2591 2592 2596 2598 2600 2605 2618 2621
        2626 2628 2632 2635 2643 2646 2648 2676 2683 2686 2687 2693 2695
        2698 2702 2724 2727 2728 2735 2737 2756 2759 2766 2768 2769 2771
        2772 2775 2778 2779 2785 2786 2787 2788 2799 2807 2814 2825 2862
        2863 2865 2870 2877 2879 2887 2905 2907 2908 2909 2910 2912 2952
        2953 2955 2956 2958 2962 2970 2983 2989 2992 2993 2994 2995 2997
        2999 3000 3011 3019 3027 3031 3034 3052 3055 3058 3060 3061 3065
        3071 3074 3077 3091 3102 3103 3104 3109 3110 3111 3114 3116 3122
        3130 3131 3140 3141 3146 3153 3154 3175 3178 3179 3181 3182 3205
        3207 3209 3220 3221 3222 3223 3224 3226 3227 3228 3230 3231 3237
        3238 3239 3241 3242 3243 3244 3246 3247 3248 3252 3287 3291 3292
        3294 3297 3299 3302 3320 3323 3331 3345 3354 3355 3357 3371 3372
        3374 3375 3381 3386 3389 3390 3393 3396 3416 3420 3422 3424 3426
        3434 3444 3446 3447 3464 3479 3488 3490 3492 3496 3500 3501 3507
        3516 3522 3527 3534 3536 3538 3540 3542 3543 3546 3547 3560 3561
        3565 3566 3568 3570 3575 3578 3602 3608 3610 3612 3613 3614 3617
        3622 3632 3633 3638 3671 3674 3678 3681 3684 3694 3701 3703 3704
        3715 3718 3726 3730 3753 3760 3767 3789 3803 3820 3822 3835 3839
        3841 3842 3844 3848 3850 3855 3860 3863 3864 3896 3902 3909 3918
        3931 3951 3952 3955 3957 3970 3974 3981 3982 3983 3988 3990 3992
        3996 4000 4001 4003 4021 4022 4032 4038 4055 4057 4060 4062 4063
        4064 4083 4092 4093 4094 4100 4107 4115 4118 4120 4121 4124 4127
        4129 4136 4137 4141 4142 4144 4156 4168 4169 4196 4197 4205 4217
        4218 4222 4224 4226 4233 4234 4242 4243 4260 4263 4265 4267 4270
        4276 4278 4284 4290 4291 4298 4299 4302 4304 4305 4318 4323 4330
        4332 4333 4339 4343 4348 4350 4352 4377 4385 4387 4388 4390 4400
        4410 4427 4429 4430 4433 4443 4456 4457 4461 4468 4471 4479 4482
        4486 4492 4499 4502 4503 4511 4523 4525 4531 4533 4534 4554 4555
        4557 4558 4559 4560 4571 4572 4579 4584 4585 4591 4593 4615 4616
        4647 4656 4658 4661 4673 4695 4696 4699 4703 4722 4723 4742 4743
        4744 4753 4761 4767 4775 4779 4780 4792 4794 4800 4804 4813 4818
        4830 4833 4843 4848 4851 4853 4854 4855 4858 4859 4860 4861 4865
        4873 4875 4878 4879 4880 4881 4882 4887 4894 4899 4915 4917 4931
        4932 4935 4945 4953 4962 4963 4966 4969 4970 4974 4986 4987 4990
        4996 4999 5003 5004 5006 5013 5014 5016 5032 5033 5035 5037 5044
        5047 5048 5053 5058 5059 5060 5061 5072 5078 5079 5081 5089 5094
        5095 5097 5107 5108 5109 5117 5118 5121 5122 5123 5126 5127 5142
        5143 5144 5147 5148 5150 5154 5155 5161 5162 5171 5176 5177 5178
        5179 5181 5182 5191 5197 5207 5209 5211 5212 5215 5224 5226 5231
        5238 5240 5243 5244 5254 5255 5256 5265 5286 5288 5291 5292 5302
        5305 5309 5312 5313 5314 5324 5332 5340 5345 5347 5351 5352 5353
        5354 5358 5364 5365 5373 5382 5383 5386 5392 5393 5395 5399 5401
        5409 5413 5414 5417 5431 5432 5433 5448 5449 5451 5459 5460 5461
        5462 5465 5470 5475 5477 5478 5483 5485 5486 5487 5497 5505 5506
        5508 5509 5510 5520 5522 5526 5527 5532 5535 5541 5543 5545 5565
        5571 5572 5575 5597 5601 5602 5610 5612 5613 5617 5619 5620 5623
        5624 5630 5633 5639 5660 5661 5663 5667 5668 5669 5672 5674 5678
        5680 5684 5686 5690 5692 5703 5705 5708 5709 5716 5717 5718 5719
        5720 5724 5725 5727 5735 5746 5769 5775 5776 5789 5792 5793 5800
        5801 5802 5804 5805 5808 5809 5810 5811 5813 5820 5829 5830 5836
        5839 5844 5849 5851 5853 5856 5861 5862 5863 5871 5874 5875 5879
        5882 5896 5898 5901 5904 5911 5912 5916 5917 5924 5926 5930 5937
        5938 5943 5953 5961 5962 5964 5972 5984 5995 5996 6015 6016 6027
        6031 6033 6038 6039 6047 6049 6058 6061 6064 6071 6072 6078 6086
        6088 6089 6101 6112 6120 6122 6123 6130 6136 6140 6143 6147 6148
        6156 6160 6161 6165 6166 6168 6170 6178 6179 6180 6181 6184 6189
        6190 6191 6195 6209 6219 6224 6226 6227 6228 6229 6230 6238 6248
        6252 6254 6255 6256 6264 6268 6270 6288 6289 6291 6298 6300 6306
        6308 6309 6310 6316 6321 6336 6337 6351 6357 6358 6365 6381 6382
        6383 6385 6386 6387 6396 6406 6407 6408 6409 6410 6421 6426 6427
        6438 6441 6449 6452 6454 6455 6465 6468 6475 6484 6493 6502 6503
        6504 6507 6511 6512 6517 6518 6519 6520 6522 6525 6526 6528 6529
        6538 6540 6559 6565 6566 6571 6577 6578 6579 6582 6586 6591 6595
        6599 6600 6611 6613 6617 6643 6650 6654 6655 6658 6668 6669 6683
        6693 6706 6723 6724 6729 6731 6732 6733 6734 6735 6750 6753 6755
        6756 6757 6761 6781 6792 6794 6796 6797 6798 6800 6803 6806 6807
        6808 6811 6816 6818 6819 6826 6827 6832 6837 6838 6840 6841 6842
        6844 6854 6855 6876 6879 6886 6889 6890 6891 6892 6893 6894 6897
        6898 6899 6900 6901 6902 6903 6904 6905 6907 6909 6912 6914 6915
        6917 6920 6921 6927 6930 6931 6933 6934 6935 6937 6941 6946 6949
        6956 6967 6969 6970 6971 6977 6978 6979 6980 6982 6983 6984 6985
        6986 6987 6990 6998 7003 7004 7007 7008 7013 7016 7017 7018 7022
        7028 7034 7038 7043 7050 7051 7059 7067 7068 7070 7073 7076 7080
        7083 7086 7089 7090 7092 7102 7108 7109 7120 7121 7126 7128 7131
        7134 7140 7141 7144 7145 7150 7152 7153 7154 7160 7162 7164 7176
        7179 7189 7190 7191 7201 7208 7209 7216 7219 7220 7222 7224 7225
        7237 7240 7241 7244 7249 7253 7255 7258 7261 7262 7263 7264 7265
        7266 7270 7271 7277 7278 7284 7285 7287 7288 7301 7305 7307 7308
        7311 7323 7324 7325 7329 7330 7334 7338 7342 7343 7345 7346 7347
        7349 7351 7354 7355 7362 7363 7366 7371 7372 7373 7374 7375 7378
        7379 7381 7384 7385 7386 7387 7388 7389 7390 7405 7406 7407 7408
        7409 7412 7413 7415 7424 7425 7428 7432 7440 7443 7447 7450 7454
        7457 7458 7459 7460 7466 7474 7475 7476 7481 7483 7486 7487 7488
        7490 7492 7495 7506 7508 7510 7512 7515 7516 7517 7518 7519 7523
        7531 7536 7540 7542 7547 7549 7551 7552 7553 7559 7562 7570 7572
        7573 7588 7593 7600 7612 7613 7628 7629 7630 7631 7632 7633 7635
        7638 7640 7641 7642 7645 7646 7648 7650 7652 7654 7658 7661 7662
        7668 7669 7670 7671 7673 7675 7677 7691 7692 7694 7695 7696 7697
        7698 7709 7710 7714 7716 7718 7719 7726 7736 7738 7739 7741 7742
        7744 7747 7753 7754 7761 7762 7776 7777 7780 7781 7782 7783 7784
        7785 7786 7787 7793 7794 7796 7797 7803 7807 7811 7812 7813 7821
        7822 7827 7832 7833 7843 7850 7851 7866 7870 7871 7872 7874 7877
        7878 7881 7883 7885 7897 7899 7902 7903 7912 7914 7921 7927 7932
        7934 7935 7936 7937 7940 7941 7942 7943 7944 7945 7952 7954 7955
        7956 7957 7959 7972 7975 7977 7983 7988 7990 7999 8004 8011 8012
        8015 8017 8018 8019 8020 8021 8023 8024 8025 8027 8028 8029 8033
        8034 8036 8037 8038 8040 8050 8057 8062 8063 8064 8065 8067 8068
        8073 8082 8083 8086 8090 8091 8092 8093 8094 8095 8096 8097 8098
        8100 8103 8108 8110 8111 8112 8115 8116 8117 8126 8131 8134 8135
        8137 8138 8139 8140 8142 8145 8147 8150 8151 8155 8159 8160 8161
        8163 8175 8176 8177 8178 8179 8180 8184 8197 8222 8223 8225 8226
        8234 8241 8246 8247 8248 8253 8255 8256 8257 8261 8262 8263 8264
        8265 8273 8274 8279 8280 8286 8287 8288 8300 8301 8303 8306 8316
        8318 8325 8330 8331 8333 8335 8338 8339 8341 8343 8345 8349 8351
        8352 8353 8359 8360 8361 8363 8368 8380 8382 8389 8395 8396 8397
        8401 8402 8408 8412 8433 8448 8449 8451 8452 8457 8458 8459 8460
        8463 8469 8470 8472 8473 8474 8475 8478 8479 8503 8509 8510 8513
        8514 8522 8531 8538 8539 8541 8544 8545 8550 8557 8558 8565 8568
        8569 8570 8571 8576 8577 8579 8582 8583 8588 8591 8598 8599 8600
        8607 8611 8612 8614 8615 8623 8631 8632 8649 8651 8655 8663 8664
        8666 8667 8668 8669 8670 8675 8677 8682 8703 8704 8705 8706 8707
        8708 8709 8720 8724 8726 8728 8729 8736 8737 8738 8739 8746 8753
        8754 8757 8758 8759 8760 8761 8762 8765 8766 8769 8782 8783 8784
        8785 8797 8798 8802 8805 8810 8811 8813 8815 8818 8819 8820 8823
        8827 8828 8839 8840 8841 8842 8846 8854 8856 8858 8859 8860 8861
        8862 8863 8864 8867 8869 8870 8871 8872 8873 8874 8875 8877 8883
        8884 8885 8887 8890 8901 8905 8906 8908 8911 8926 8927 8928 8929
        8930 8935 8936 8941 8944 8945 8953 8970 8971 8973 8974 8980 8982
        8983 8984 8985 8986 8988 8989 8990 8991 8996 9005 9008 9009 9012
        9015 9019 9022 9031 9032 9035 9036 9038 9040 9041 9043 9044 9050
        9051 9056 9059 9069 9074 9075 9078 9082 9085 9092 9096 9097 9098
        9100 9115 9117 9118 9141 9146 9154 9162 9163 9164 9166 9168 9169
        9171 9172 9174 9181 9182 9184 9188 9198 9200 9201 9202 9203 9204
        9211 9212 9221 9222 9225 9226 9227 9228 9229 9230 9234 9245 9251
        9256 9267 9270 9277 9282 9285 9286 9295 9296 9297 9300 9302 9307
        9308 9309 9310 9312 9313 9314 9315 9316 9317 9318 9322 9323 9324
        9329 9330 9331 9333 9335 9337 9338 9342 9346 9347 9348 9353 9354
        9356 9359 9361 9364 9366 9368 9369 9370 9371 9372 9374 9375 9377
        9379 9384 9385 9389 9390 9391 9392 9393 9398 9399 9400 9401 9403
        9404 9405 9406 9411 9412 9413 9414 9417 9418 9419 9420 9421 9422
        9434 9436 9438 9441 9451 9469 9472 9475 9491 9497 9500 9501 9502
        9507 9508 9509 9515 9516 9517 9519 9522 9523 9524 9530 9531 9533
        9536 9544 9553 9554 9555 9556 9557 9558 9562 9563 9564 9566 9567
        9571 9573 9574 9576 9577 9581 9582 9583 9585 9586 9588 9599 9603
        9606 9612 9613 9614 9615 9616 9623 9626 9627 9630 9631 9632 9633
        9634 9635 9637 9638 9639 9640 9642 9643 9645 9646 9647 9648 9649
        9651 9653 9665 9671 9672 9673 9674 9675 9680 9703 9704 9705 9707
        9713 9716 9718 9719 9720 9723 9730 9740 9742 9743 9750 9751 9754
        9756 9764 9765 9766 9767 9768 9769 9771 9774 9776 9777 9778 9779
        9780 9781 9791 9797 9799 9806 9807 9808 9809 9813 9814 9816 9817
        9818 9819 9820 9821 9822 9823 9831 9836 9840 9841 9854 9856 9857
        9859 9861 9863 9867 9871 9872 9874 9875 9876 9877 9878 9879 9880
        9882 9883 9884 9885 9886 9887 9892 9893 9895 9896 9897 9899 9916
        9917 9935 9936 9938 9941 9944 9945 9950 9955 9957 9958 9959 9964
        9969 9971 9972 9973 9975 9976 9978 9979 9988 9990 9996 9997 9998
        9999 10000 10001 10002 10003 10005

    BC-SET-2:
      instance name: PART-1-1
      number of elements: 2456
      elements: 
        5 17 20 21 22 29 30 31 32 33 35 38 52 53 55 57 64 66 68 73 75 90
        91 92 95 98 100 110 111 112 113 126 129 130 131 132 133 134 135
        137 140 142 143 144 145 146 147 148 149 156 158 160 161 164 165
        166 167 168 169 170 171 173 174 175 176 177 182 183 196 218 221
        225 226 228 229 230 234 244 245 246 247 255 256 260 269 270 272
        273 275 276 281 283 284 285 286 287 289 291 299 304 305 306 307
        308 309 313 314 315 317 319 322 324 328 329 334 335 336 337 338
        340 348 349 350 351 356 358 361 365 367 368 369 370 371 372 373
        374 375 376 379 380 392 397 403 414 415 416 418 420 421 422 423
        424 426 427 428 429 430 431 432 433 435 443 444 445 446 447 449
        450 461 462 463 465 466 468 469 471 472 481 482 485 487 489 490
        491 492 515 517 518 519 520 521 522 523 529 540 541 543 544 549
        550 552 554 555 562 567 568 569 572 573 575 576 581 582 583 584
        585 586 587 589 590 591 592 593 597 602 608 617 623 624 628 630
        631 632 635 638 641 642 644 649 651 652 653 665 666 669 670 673
        681 692 693 695 698 715 727 732 733 742 769 773 775 776 777 778
        779 781 782 783 785 786 788 791 793 794 795 800 802 803 811 812
        814 817 820 822 823 825 826 827 829 831 835 837 838 839 840 841
        845 846 847 851 852 857 860 861 862 863 864 865 867 868 877 898
        900 903 904 905 906 911 913 915 921 922 926 927 933 937 938 942
        956 968 977 978 979 981 988 996 1000 1001 1004 1008 1011 1016
        1017 1019 1021 1022 1033 1054 1058 1060 1062 1063 1065 1067 1070
        1074 1075 1079 1080 1083 1089 1092 1101 1109 1111 1112 1113 1116
        1117 1118 1119 1121 1122 1123 1124 1126 1127 1132 1137 1148 1151
        1153 1158 1160 1167 1169 1170 1174 1176 1177 1178 1182 1190 1199
        1218 1219 1220 1222 1223 1227 1228 1234 1235 1236 1238 1239 1240
        1242 1247 1248 1249 1252 1253 1255 1256 1257 1258 1262 1263 1264
        1265 1267 1273 1286 1287 1290 1302 1309 1310 1311 1314 1317 1318
        1319 1323 1329 1334 1338 1341 1344 1347 1350 1351 1352 1354 1355
        1356 1359 1361 1362 1363 1364 1366 1367 1376 1388 1416 1419 1427
        1430 1435 1436 1440 1444 1453 1454 1462 1467 1470 1471 1472 1481
        1487 1488 1491 1492 1494 1495 1501 1509 1525 1527 1530 1535 1536
        1543 1547 1553 1555 1557 1558 1559 1564 1573 1582 1590 1592 1593
        1597 1600 1602 1603 1605 1606 1608 1609 1610 1611 1612 1613 1614
        1627 1647 1655 1666 1669 1670 1671 1672 1674 1676 1677 1678 1686
        1690 1692 1722 1724 1725 1726 1728 1733 1734 1744 1753 1756 1763
        1764 1773 1775 1781 1784 1787 1788 1789 1809 1828 1829 1833 1836
        1839 1847 1848 1865 1867 1871 1874 1888 1889 1903 1941 1943 1945
        1952 1953 1954 1958 1968 1972 1973 1991 1998 2000 2002 2003 2012
        2016 2022 2025 2026 2027 2028 2029 2031 2032 2033 2036 2038 2039
        2043 2045 2048 2050 2051 2052 2054 2055 2056 2058 2059 2062 2064
        2065 2078 2083 2084 2087 2095 2097 2098 2112 2113 2114 2117 2136
        2141 2150 2160 2161 2164 2175 2177 2183 2184 2185 2186 2187 2188
        2192 2193 2194 2199 2209 2214 2215 2220 2221 2224 2234 2238 2251
        2257 2258 2260 2262 2264 2265 2268 2270 2271 2272 2274 2275 2277
        2278 2279 2292 2313 2319 2322 2326 2328 2331 2334 2335 2343 2346
        2347 2348 2353 2356 2360 2374 2378 2388 2396 2398 2401 2402 2405
        2406 2426 2428 2431 2432 2434 2435 2438 2443 2446 2447 2449 2480
        2488 2489 2494 2496 2498 2503 2504 2505 2507 2508 2514 2515 2516
        2532 2534 2539 2540 2553 2555 2559 2561 2568 2582 2593 2594 2622
        2629 2639 2640 2651 2657 2658 2663 2664 2666 2670 2673 2680 2684
        2685 2704 2708 2711 2718 2719 2726 2733 2734 2739 2746 2747 2748
        2752 2757 2767 2770 2773 2776 2781 2782 2789 2793 2794 2800 2802
        2803 2804 2805 2809 2813 2822 2824 2826 2836 2844 2848 2867 2871
        2872 2886 2889 2893 2894 2895 2896 2901 2902 2903 2904 2906 2913
        2914 2915 2926 2934 2937 2943 2945 2947 2948 2964 2968 2969 2972
        2973 2978 2985 2996 3004 3007 3013 3023 3028 3035 3037 3043 3044
        3046 3047 3048 3050 3051 3054 3056 3057 3062 3064 3073 3079 3080
        3082 3084 3085 3090 3092 3095 3096 3117 3119 3120 3121 3123 3125
        3129 3135 3160 3161 3164 3173 3174 3177 3180 3183 3185 3186 3190
        3191 3200 3201 3202 3203 3212 3213 3216 3218 3225 3229 3233 3235
        3240 3245 3256 3257 3262 3266 3267 3271 3272 3274 3276 3277 3278
        3284 3285 3286 3289 3300 3303 3304 3315 3316 3318 3341 3343 3344
        3346 3349 3352 3353 3358 3359 3362 3369 3376 3379 3398 3399 3402
        3411 3413 3414 3417 3418 3430 3431 3458 3465 3466 3476 3482 3484
        3493 3495 3502 3505 3506 3511 3512 3528 3531 3545 3548 3557 3562
        3563 3564 3567 3569 3571 3584 3588 3599 3601 3603 3624 3627 3631
        3635 3646 3651 3652 3654 3655 3656 3666 3669 3672 3673 3675 3677
        3690 3691 3693 3707 3713 3734 3735 3755 3766 3768 3773 3775 3777
        3782 3784 3793 3795 3796 3804 3810 3813 3819 3824 3825 3826 3829
        3830 3833 3845 3861 3871 3875 3892 3893 3894 3895 3898 3899 3901
        3908 3911 3914 3915 3920 3922 3923 3929 3930 3932 3935 3938 3942
        3944 3965 3966 3984 3995 3998 4012 4013 4015 4016 4026 4042 4048
        4054 4065 4068 4069 4070 4075 4076 4077 4078 4081 4082 4085 4091
        4101 4109 4119 4122 4135 4143 4146 4148 4149 4151 4153 4159 4160
        4163 4175 4206 4207 4208 4211 4212 4216 4221 4223 4230 4244 4255
        4256 4258 4259 4261 4264 4279 4283 4288 4292 4294 4300 4301 4308
        4311 4324 4334 4338 4341 4353 4357 4359 4361 4362 4364 4366 4371
        4372 4379 4380 4382 4394 4395 4396 4397 4398 4402 4405 4406 4407
        4412 4418 4422 4424 4432 4442 4447 4448 4450 4452 4454 4463 4466
        4473 4480 4483 4484 4485 4487 4493 4497 4498 4509 4510 4516 4518
        4524 4530 4532 4536 4550 4561 4568 4569 4574 4581 4589 4596 4602
        4603 4604 4605 4606 4608 4609 4620 4621 4623 4624 4637 4640 4641
        4642 4644 4645 4651 4653 4660 4664 4666 4667 4668 4670 4671 4675
        4678 4680 4681 4682 4684 4688 4689 4692 4704 4707 4714 4721 4734
        4735 4736 4748 4754 4768 4769 4774 4781 4786 4788 4799 4801 4802
        4805 4808 4810 4811 4823 4834 4840 4841 4844 4852 4874 4883 4885
        4891 4895 4900 4901 4907 4918 4919 4926 4933 4940 4941 4943 4944
        4946 4947 4950 4951 4956 4959 4965 4967 4968 4973 4975 4981 4983
        4992 4993 4994 4997 5008 5009 5011 5024 5029 5030 5034 5036 5041
        5049 5052 5054 5055 5056 5063 5068 5070 5073 5074 5075 5076 5080
        5082 5084 5085 5125 5131 5136 5137 5138 5140 5141 5149 5158 5159
        5167 5170 5172 5174 5187 5188 5196 5205 5206 5213 5217 5219 5220
        5221 5228 5233 5235 5239 5241 5246 5248 5249 5250 5251 5257 5260
        5261 5267 5273 5275 5279 5280 5284 5294 5295 5296 5297 5298 5299
        5300 5301 5323 5325 5326 5327 5328 5329 5330 5331 5336 5337 5339
        5342 5344 5355 5366 5367 5375 5380 5381 5390 5391 5398 5406 5407
        5408 5411 5412 5415 5420 5422 5423 5425 5426 5427 5428 5429 5436
        5439 5440 5442 5444 5445 5446 5450 5453 5454 5458 5474 5476 5479
        5480 5481 5488 5499 5502 5503 5507 5511 5521 5531 5533 5538 5539
        5540 5546 5548 5551 5552 5556 5557 5558 5559 5563 5567 5568 5569
        5581 5582 5585 5596 5603 5605 5606 5607 5628 5629 5635 5636 5637
        5641 5643 5644 5645 5652 5655 5657 5658 5659 5662 5673 5675 5677
        5679 5682 5683 5698 5700 5701 5702 5726 5730 5741 5742 5744 5752
        5753 5756 5757 5760 5761 5762 5764 5779 5782 5784 5788 5795 5797
        5798 5817 5818 5819 5828 5832 5834 5848 5852 5857 5860 5865 5866
        5867 5870 5883 5884 5885 5886 5888 5889 5891 5892 5893 5895 5897
        5905 5906 5914 5928 5932 5933 5956 5965 5975 5976 5977 5978 5979
        5980 5982 5983 5985 5986 5987 5988 5994 5997 6000 6026 6029 6037
        6046 6048 6050 6052 6056 6062 6067 6077 6079 6080 6081 6085 6087
        6091 6092 6093 6094 6105 6109 6110 6111 6125 6138 6139 6153 6154
        6157 6158 6164 6169 6172 6173 6177 6197 6200 6203 6207 6211 6212
        6213 6214 6215 6216 6217 6218 6258 6261 6265 6266 6267 6283 6285
        6287 6290 6294 6305 6307 6327 6328 6329 6330 6331 6333 6343 6346
        6347 6350 6354 6364 6368 6377 6389 6390 6391 6394 6397 6398 6399
        6401 6404 6405 6416 6428 6432 6433 6434 6435 6437 6444 6447 6450
        6451 6458 6459 6466 6467 6469 6481 6482 6483 6485 6497 6498 6500
        6501 6508 6510 6530 6534 6535 6542 6547 6548 6549 6556 6557 6562
        6564 6572 6573 6575 6576 6580 6583 6588 6592 6594 6596 6598 6607
        6615 6619 6621 6626 6630 6633 6634 6635 6644 6645 6646 6647 6648
        6652 6656 6660 6663 6665 6673 6674 6678 6681 6684 6685 6686 6687
        6694 6697 6701 6702 6703 6711 6712 6716 6717 6718 6726 6737 6744
        6765 6766 6767 6768 6769 6770 6771 6772 6773 6774 6776 6778 6779
        6780 6783 6784 6790 6799 6812 6823 6824 6830 6833 6834 6839 6846
        6847 6849 6860 6862 6872 6873 6878 6881 6882 6883 6906 6913 6922
        6926 6929 6953 6958 6959 6962 6963 6972 6976 6991 6992 6993 6997
        7010 7015 7019 7021 7026 7029 7031 7032 7040 7045 7046 7063 7072
        7074 7094 7095 7096 7098 7099 7114 7115 7116 7117 7130 7132 7138
        7151 7155 7156 7157 7165 7167 7173 7186 7187 7195 7204 7205 7206
        7217 7232 7233 7238 7239 7243 7250 7252 7257 7260 7279 7293 7294
        7295 7297 7298 7300 7303 7304 7312 7313 7314 7315 7316 7350 7369
        7382 7393 7399 7401 7403 7418 7419 7420 7421 7427 7429 7444 7448
        7471 7472 7479 7484 7491 7493 7494 7496 7513 7520 7524 7525 7526
        7529 7532 7535 7537 7538 7543 7544 7545 7546 7555 7556 7560 7561
        7563 7564 7565 7567 7571 7574 7579 7582 7584 7586 7587 7589 7592
        7595 7597 7598 7601 7602 7603 7604 7605 7610 7617 7618 7621 7624
        7625 7627 7636 7637 7639 7659 7665 7672 7674 7681 7682 7686 7693
        7700 7701 7702 7705 7706 7707 7712 7722 7723 7727 7731 7734 7737
        7740 7746 7751 7755 7756 7759 7760 7770 7771 7772 7773 7774 7789
        7799 7800 7801 7808 7810 7814 7823 7830 7840 7841 7842 7844 7845
        7847 7854 7868 7869 7873 7876 7886 7887 7889 7893 7894 7895 7898
        7900 7901 7907 7908 7909 7913 7923 7924 7928 7938 7946 7947 7950
        7951 7962 7963 7964 7965 7969 7973 7986 7992 7993 8005 8006 8008
        8009 8016 8022 8031 8042 8043 8045 8046 8047 8048 8049 8054 8055
        8069 8070 8099 8104 8109 8120 8121 8123 8141 8152 8162 8164 8165
        8167 8170 8172 8173 8174 8187 8188 8189 8190 8192 8194 8195 8196
        8202 8203 8205 8206 8207 8211 8212 8213 8224 8231 8232 8233 8235
        8236 8237 8242 8254 8267 8278 8284 8285 8295 8310 8315 8319 8322
        8323 8324 8328 8350 8356 8362 8365 8369 8370 8373 8374 8375 8376
        8379 8384 8386 8387 8388 8390 8391 8392 8398 8407 8413 8417 8418
        8419 8423 8424 8425 8430 8432 8435 8436 8437 8438 8442 8443 8480
        8481 8482 8487 8490 8491 8492 8495 8496 8497 8498 8501 8502 8504
        8505 8506 8507 8508 8532 8537 8540 8542 8543 8552 8553 8554 8563
        8564 8575 8581 8584 8585 8586 8601 8602 8603 8604 8619 8622 8624
        8625 8629 8630 8639 8640 8642 8650 8656 8660 8661 8662 8674 8685
        8686 8687 8691 8692 8693 8694 8695 8696 8697 8699 8700 8701 8710
        8717 8718 8719 8725 8734 8735 8741 8743 8745 8747 8749 8750 8751
        8752 8767 8768 8770 8776 8778 8780 8786 8788 8790 8806 8812 8833
        8836 8843 8847 8849 8851 8852 8853 8855 8876 8878 8879 8880 8881
        8882 8891 8892 8894 8895 8900 8902 8903 8909 8910 8913 8914 8915
        8916 8918 8919 8920 8923 8924 8925 8938 8939 8940 8942 8947 8952
        8956 8957 8965 8966 8976 8977 8994 8995 8998 8999 9000 9001 9002
        9003 9004 9011 9025 9026 9029 9037 9039 9042 9045 9046 9047 9048
        9052 9053 9054 9055 9058 9063 9066 9071 9073 9083 9084 9088 9089
        9090 9091 9093 9105 9106 9107 9109 9110 9111 9112 9113 9114 9119
        9120 9127 9130 9131 9132 9136 9138 9142 9143 9144 9145 9148 9149
        9156 9157 9158 9159 9160 9161 9165 9167 9170 9175 9180 9183 9187
        9195 9209 9210 9213 9214 9215 9216 9217 9218 9219 9220 9236 9239
        9240 9241 9242 9243 9244 9249 9250 9252 9253 9254 9255 9257 9258
        9260 9261 9262 9265 9266 9269 9273 9275 9276 9280 9283 9289 9291
        9293 9303 9305 9311 9328 9336 9341 9343 9345 9355 9357 9363 9367
        9376 9416 9423 9424 9426 9427 9428 9430 9431 9432 9435 9447 9450
        9452 9453 9454 9456 9460 9462 9465 9468 9476 9477 9481 9482 9483
        9484 9485 9486 9499 9505 9510 9511 9512 9513 9520 9534 9535 9539
        9543 9545 9547 9568 9579 9584 9587 9590 9597 9598 9602 9604 9605
        9619 9624 9625 9652 9654 9656 9657 9658 9661 9662 9663 9664 9666
        9668 9669 9670 9676 9677 9678 9685 9686 9687 9688 9689 9690 9694
        9695 9696 9700 9702 9706 9709 9725 9726 9728 9729 9731 9737 9739
        9745 9747 9752 9755 9758 9759 9760 9782 9783 9786 9787 9788 9793
        9794 9795 9800 9804 9805 9811 9812 9826 9832 9835 9846 9855 9858
        9864 9890 9900 9901 9902 9903 9904 9905 9906 9907 9908 9909 9911
        9912 9919 9920 9921 9922 9924 9925 9926 9927 9930 9931 9932 9933
        9940 9942 9946 9947 9953 9954 9960 9965 9966 9967 9970 9974 9980
        9981 9982 9983 9986 9987 9989 9993 9994 9995

  Surfaces:

INSTANCE LEVEL
  node sets:
    Instance name: PART-1-1
      node set name: SET-1
        number of nodes: 2608
        nodes: 
          1 2 3 4 5 6 7 8 9 10 11 12 13 14 15 16 17 18 19 20 21 22 23 24
          25 26 27 28 29 30 31 32 33 34 35 36 37 38 39 40 41 42 43 44 45
          46 47 48 49 50 51 52 53 54 55 56 57 58 59 60 61 62 63 64 65 66
          67 68 69 70 71 72 73 74 75 76 77 78 79 80 81 82 83 84 85 86 87
          88 89 90 91 92 93 94 95 96 97 98 99 100 101 102 103 104 105
          106 107 108 109 110 111 112 113 114 115 116 117 118 119 120
          121 122 123 124 125 126 127 128 129 130 131 132 133 134 135
          136 137 138 139 140 141 142 143 144 145 146 147 148 149 150
          151 152 153 154 155 156 157 158 159 160 161 162 163 164 165
          166 167 168 169 170 171 172 173 174 175 176 177 178 179 180
          181 182 183 184 185 186 187 188 189 190 191 192 193 194 195
          196 197 198 199 200 201 202 203 204 205 206 207 208 209 210
          211 212 213 214 215 216 217 218 219 220 221 222 223 224 225
          226 227 228 229 230 231 232 233 234 235 236 237 238 239 240
          241 242 243 244 245 246 247 248 249 250 251 252 253 254 255
          256 257 258 259 260 261 262 263 264 265 266 267 268 269 270
          271 272 273 274 275 276 277 278 279 280 281 282 283 284 285
          286 287 288 289 290 291 292 293 294 295 296 297 298 299 300
          301 302 303 304 305 306 307 308 309 310 311 312 313 314 315
          316 317 318 319 320 321 322 323 324 325 326 327 328 329 330
          331 332 333 334 335 336 337 338 339 340 341 342 343 344 345
          346 347 348 349 350 351 352 353 354 355 356 357 358 359 360
          361 362 363 364 365 366 367 368 369 370 371 372 373 374 375
          376 377 378 379 380 381 382 383 384 385 386 387 388 389 390
          391 392 393 394 395 396 397 398 399 400 401 402 403 404 405
          406 407 408 409 410 411 412 413 414 415 416 417 418 419 420
          421 422 423 424 425 426 427 428 429 430 431 432 433 434 435
          436 437 438 439 440 441 442 443 444 445 446 447 448 449 450
          451 452 453 454 455 456 457 458 459 460 461 462 463 464 465
          466 467 468 469 470 471 472 473 474 475 476 477 478 479 480
          481 482 483 484 485 486 487 488 489 490 491 492 493 494 495
          496 497 498 499 500 501 502 503 504 505 506 507 508 509 510
          511 512 513 514 515 516 517 518 519 520 521 522 523 524 525
          526 527 528 529 530 531 532 533 534 535 536 537 538 539 540
          541 542 543 544 545 546 547 548 549 550 551 552 553 554 555
          556 557 558 559 560 561 562 563 564 565 566 567 568 569 570
          571 572 573 574 575 576 577 578 579 580 581 582 583 584 585
          586 587 588 589 590 591 592 593 594 595 596 597 598 599 600
          601 602 603 604 605 606 607 608 609 610 611 612 613 614 615
          616 617 618 619 620 621 622 623 624 625 626 627 628 629 630
          631 632 633 634 635 636 637 638 639 640 641 642 643 644 645
          646 647 648 649 650 651 652 653 654 655 656 657 658 659 660
          661 662 663 664 665 666 667 668 669 670 671 672 673 674 675
          676 677 678 679 680 681 682 683 684 685 686 687 688 689 690
          691 692 693 694 695 696 697 698 699 700 701 702 703 704 705
          706 707 708 709 710 711 712 713 714 715 716 717 718 719 720
          721 722 723 724 725 726 727 728 729 730 731 732 733 734 735
          736 737 738 739 740 741 742 743 744 745 746 747 748 749 750
          751 752 753 754 755 756 757 758 759 760 761 762 763 764 765
          766 767 768 769 770 771 772 773 774 775 776 777 778 779 780
          781 782 783 784 785 786 787 788 789 790 791 792 793 794 795
          796 797 798 799 800 801 802 803 804 805 806 807 808 809 810
          811 812 813 814 815 816 817 818 819 820 821 822 823 824 825
          826 827 828 829 830 831 832 833 834 835 836 837 838 839 840
          841 842 843 844 845 846 847 848 849 850 851 852 853 854 855
          856 857 858 859 860 861 862 863 864 865 866 867 868 869 870
          871 872 873 874 875 876 877 878 879 880 881 882 883 884 885
          886 887 888 889 890 891 892 893 894 895 896 897 898 899 900
          901 902 903 904 905 906 907 908 909 910 911 912 913 914 915
          916 917 918 919 920 921 922 923 924 925 926 927 928 929 930
          931 932 933 934 935 936 937 938 939 940 941 942 943 944 945
          946 947 948 949 950 951 952 953 954 955 956 957 958 959 960
          961 962 963 964 965 966 967 968 969 970 971 972 973 974 975
          976 977 978 979 980 981 982 983 984 985 986 987 988 989 990
          991 992 993 994 995 996 997 998 999 1000 1001 1002 1003 1004
          1005 1006 1007 1008 1009 1010 1011 1012 1013 1014 1015 1016
          1017 1018 1019 1020 1021 1022 1023 1024 1025 1026 1027 1028
          1029 1030 1031 1032 1033 1034 1035 1036 1037 1038 1039 1040
          1041 1042 1043 1044 1045 1046 1047 1048 1049 1050 1051 1052
          1053 1054 1055 1056 1057 1058 1059 1060 1061 1062 1063 1064
          1065 1066 1067 1068 1069 1070 1071 1072 1073 1074 1075 1076
          1077 1078 1079 1080 1081 1082 1083 1084 1085 1086 1087 1088
          1089 1090 1091 1092 1093 1094 1095 1096 1097 1098 1099 1100
          1101 1102 1103 1104 1105 1106 1107 1108 1109 1110 1111 1112
          1113 1114 1115 1116 1117 1118 1119 1120 1121 1122 1123 1124
          1125 1126 1127 1128 1129 1130 1131 1132 1133 1134 1135 1136
          1137 1138 1139 1140 1141 1142 1143 1144 1145 1146 1147 1148
          1149 1150 1151 1152 1153 1154 1155 1156 1157 1158 1159 1160
          1161 1162 1163 1164 1165 1166 1167 1168 1169 1170 1171 1172
          1173 1174 1175 1176 1177 1178 1179 1180 1181 1182 1183 1184
          1185 1186 1187 1188 1189 1190 1191 1192 1193 1194 1195 1196
          1197 1198 1199 1200 1201 1202 1203 1204 1205 1206 1207 1208
          1209 1210 1211 1212 1213 1214 1215 1216 1217 1218 1219 1220
          1221 1222 1223 1224 1225 1226 1227 1228 1229 1230 1231 1232
          1233 1234 1235 1236 1237 1238 1239 1240 1241 1242 1243 1244
          1245 1246 1247 1248 1249 1250 1251 1252 1253 1254 1255 1256
          1257 1258 1259 1260 1261 1262 1263 1264 1265 1266 1267 1268
          1269 1270 1271 1272 1273 1274 1275 1276 1277 1278 1279 1280
          1281 1282 1283 1284 1285 1286 1287 1288 1289 1290 1291 1292
          1293 1294 1295 1296 1297 1298 1299 1300 1301 1302 1303 1304
          1305 1306 1307 1308 1309 1310 1311 1312 1313 1314 1315 1316
          1317 1318 1319 1320 1321 1322 1323 1324 1325 1326 1327 1328
          1329 1330 1331 1332 1333 1334 1335 1336 1337 1338 1339 1340
          1341 1342 1343 1344 1345 1346 1347 1348 1349 1350 1351 1352
          1353 1354 1355 1356 1357 1358 1359 1360 1361 1362 1363 1364
          1365 1366 1367 1368 1369 1370 1371 1372 1373 1374 1375 1376
          1377 1378 1379 1380 1381 1382 1383 1384 1385 1386 1387 1388
          1389 1390 1391 1392 1393 1394 1395 1396 1397 1398 1399 1400
          1401 1402 1403 1404 1405 1406 1407 1408 1409 1410 1411 1412
          1413 1414 1415 1416 1417 1418 1419 1420 1421 1422 1423 1424
          1425 1426 1427 1428 1429 1430 1431 1432 1433 1434 1435 1436
          1437 1438 1439 1440 1441 1442 1443 1444 1445 1446 1447 1448
          1449 1450 1451 1452 1453 1454 1455 1456 1457 1458 1459 1460
          1461 1462 1463 1464 1465 1466 1467 1468 1469 1470 1471 1472
          1473 1474 1475 1476 1477 1478 1479 1480 1481 1482 1483 1484
          1485 1486 1487 1488 1489 1490 1491 1492 1493 1494 1495 1496
          1497 1498 1499 1500 1501 1502 1503 1504 1505 1506 1507 1508
          1509 1510 1511 1512 1513 1514 1515 1516 1517 1518 1519 1520
          1521 1522 1523 1524 1525 1526 1527 1528 1529 1530 1531 1532
          1533 1534 1535 1536 1537 1538 1539 1540 1541 1542 1543 1544
          1545 1546 1547 1548 1549 1550 1551 1552 1553 1554 1555 1556
          1557 1558 1559 1560 1561 1562 1563 1564 1565 1566 1567 1568
          1569 1570 1571 1572 1573 1574 1575 1576 1577 1578 1579 1580
          1581 1582 1583 1584 1585 1586 1587 1588 1589 1590 1591 1592
          1593 1594 1595 1596 1597 1598 1599 1600 1601 1602 1603 1604
          1605 1606 1607 1608 1609 1610 1611 1612 1613 1614 1615 1616
          1617 1618 1619 1620 1621 1622 1623 1624 1625 1626 1627 1628
          1629 1630 1631 1632 1633 1634 1635 1636 1637 1638 1639 1640
          1641 1642 1643 1644 1645 1646 1647 1648 1649 1650 1651 1652
          1653 1654 1655 1656 1657 1658 1659 1660 1661 1662 1663 1664
          1665 1666 1667 1668 1669 1670 1671 1672 1673 1674 1675 1676
          1677 1678 1679 1680 1681 1682 1683 1684 1685 1686 1687 1688
          1689 1690 1691 1692 1693 1694 1695 1696 1697 1698 1699 1700
          1701 1702 1703 1704 1705 1706 1707 1708 1709 1710 1711 1712
          1713 1714 1715 1716 1717 1718 1719 1720 1721 1722 1723 1724
          1725 1726 1727 1728 1729 1730 1731 1732 1733 1734 1735 1736
          1737 1738 1739 1740 1741 1742 1743 1744 1745 1746 1747 1748
          1749 1750 1751 1752 1753 1754 1755 1756 1757 1758 1759 1760
          1761 1762 1763 1764 1765 1766 1767 1768 1769 1770 1771 1772
          1773 1774 1775 1776 1777 1778 1779 1780 1781 1782 1783 1784
          1785 1786 1787 1788 1789 1790 1791 1792 1793 1794 1795 1796
          1797 1798 1799 1800 1801 1802 1803 1804 1805 1806 1807 1808
          1809 1810 1811 1812 1813 1814 1815 1816 1817 1818 1819 1820
          1821 1822 1823 1824 1825 1826 1827 1828 1829 1830 1831 1832
          1833 1834 1835 1836 1837 1838 1839 1840 1841 1842 1843 1844
          1845 1846 1847 1848 1849 1850 1851 1852 1853 1854 1855 1856
          1857 1858 1859 1860 1861 1862 1863 1864 1865 1866 1867 1868
          1869 1870 1871 1872 1873 1874 1875 1876 1877 1878 1879 1880
          1881 1882 1883 1884 1885 1886 1887 1888 1889 1890 1891 1892
          1893 1894 1895 1896 1897 1898 1899 1900 1901 1902 1903 1904
          1905 1906 1907 1908 1909 1910 1911 1912 1913 1914 1915 1916
          1917 1918 1919 1920 1921 1922 1923 1924 1925 1926 1927 1928
          1929 1930 1931 1932 1933 1934 1935 1936 1937 1938 1939 1940
          1941 1942 1943 1944 1945 1946 1947 1948 1949 1950 1951 1952
          1953 1954 1955 1956 1957 1958 1959 1960 1961 1962 1963 1964
          1965 1966 1967 1968 1969 1970 1971 1972 1973 1974 1975 1976
          1977 1978 1979 1980 1981 1982 1983 1984 1985 1986 1987 1988
          1989 1990 1991 1992 1993 1994 1995 1996 1997 1998 1999 2000
          2001 2002 2003 2004 2005 2006 2007 2008 2009 2010 2011 2012
          2013 2014 2015 2016 2017 2018 2019 2020 2021 2022 2023 2024
          2025 2026 2027 2028 2029 2030 2031 2032 2033 2034 2035 2036
          2037 2038 2039 2040 2041 2042 2043 2044 2045 2046 2047 2048
          2049 2050 2051 2052 2053 2054 2055 2056 2057 2058 2059 2060
          2061 2062 2063 2064 2065 2066 2067 2068 2069 2070 2071 2072
          2073 2074 2075 2076 2077 2078 2079 2080 2081 2082 2083 2084
          2085 2086 2087 2088 2089 2090 2091 2092 2093 2094 2095 2096
          2097 2098 2099 2100 2101 2102 2103 2104 2105 2106 2107 2108
          2109 2110 2111 2112 2113 2114 2115 2116 2117 2118 2119 2120
          2121 2122 2123 2124 2125 2126 2127 2128 2129 2130 2131 2132
          2133 2134 2135 2136 2137 2138 2139 2140 2141 2142 2143 2144
          2145 2146 2147 2148 2149 2150 2151 2152 2153 2154 2155 2156
          2157 2158 2159 2160 2161 2162 2163 2164 2165 2166 2167 2168
          2169 2170 2171 2172 2173 2174 2175 2176 2177 2178 2179 2180
          2181 2182 2183 2184 2185 2186 2187 2188 2189 2190 2191 2192
          2193 2194 2195 2196 2197 2198 2199 2200 2201 2202 2203 2204
          2205 2206 2207 2208 2209 2210 2211 2212 2213 2214 2215 2216
          2217 2218 2219 2220 2221 2222 2223 2224 2225 2226 2227 2228
          2229 2230 2231 2232 2233 2234 2235 2236 2237 2238 2239 2240
          2241 2242 2243 2244 2245 2246 2247 2248 2249 2250 2251 2252
          2253 2254 2255 2256 2257 2258 2259 2260 2261 2262 2263 2264
          2265 2266 2267 2268 2269 2270 2271 2272 2273 2274 2275 2276
          2277 2278 2279 2280 2281 2282 2283 2284 2285 2286 2287 2288
          2289 2290 2291 2292 2293 2294 2295 2296 2297 2298 2299 2300
          2301 2302 2303 2304 2305 2306 2307 2308 2309 2310 2311 2312
          2313 2314 2315 2316 2317 2318 2319 2320 2321 2322 2323 2324
          2325 2326 2327 2328 2329 2330 2331 2332 2333 2334 2335 2336
          2337 2338 2339 2340 2341 2342 2343 2344 2345 2346 2347 2348
          2349 2350 2351 2352 2353 2354 2355 2356 2357 2358 2359 2360
          2361 2362 2363 2364 2365 2366 2367 2368 2369 2370 2371 2372
          2373 2374 2375 2376 2377 2378 2379 2380 2381 2382 2383 2384
          2385 2386 2387 2388 2389 2390 2391 2392 2393 2394 2395 2396
          2397 2398 2399 2400 2401 2402 2403 2404 2405 2406 2407 2408
          2409 2410 2411 2412 2413 2414 2415 2416 2417 2418 2419 2420
          2421 2422 2423 2424 2425 2426 2427 2428 2429 2430 2431 2432
          2433 2434 2435 2436 2437 2438 2439 2440 2441 2442 2443 2444
          2445 2446 2447 2448 2449 2450 2451 2452 2453 2454 2455 2456
          2457 2458 2459 2460 2461 2462 2463 2464 2465 2466 2467 2468
          2469 2470 2471 2472 2473 2474 2475 2476 2477 2478 2479 2480
          2481 2482 2483 2484 2485 2486 2487 2488 2489 2490 2491 2492
          2493 2494 2495 2496 2497 2498 2499 2500 2501 2502 2503 2504
          2505 2506 2507 2508 2509 2510 2511 2512 2513 2514 2515 2516
          2517 2518 2519 2520 2521 2522 2523 2524 2525 2526 2527 2528
          2529 2530 2531 2532 2533 2534 2535 2536 2537 2538 2539 2540
          2541 2542 2543 2544 2545 2546 2547 2548 2549 2550 2551 2552
          2553 2554 2555 2556 2557 2558 2559 2560 2561 2562 2563 2564
          2565 2566 2567 2568 2569 2570 2571 2572 2573 2574 2575 2576
          2577 2578 2579 2580 2581 2582 2583 2584 2585 2586 2587 2588
          2589 2590 2591 2592 2593 2594 2595 2596 2597 2598 2599 2600
          2601 2602 2603 2604 2605 2606 2607 2608

  element sets:
    Instance name: PART-1-1
      element set name: SET-1
        number of elements: 10005
        elements: 
          1 2 3 4 5 6 7 8 9 10 11 12 13 14 15 16 17 18 19 20 21 22 23 24
          25 26 27 28 29 30 31 32 33 34 35 36 37 38 39 40 41 42 43 44 45
          46 47 48 49 50 51 52 53 54 55 56 57 58 59 60 61 62 63 64 65 66
          67 68 69 70 71 72 73 74 75 76 77 78 79 80 81 82 83 84 85 86 87
          88 89 90 91 92 93 94 95 96 97 98 99 100 101 102 103 104 105
          106 107 108 109 110 111 112 113 114 115 116 117 118 119 120
          121 122 123 124 125 126 127 128 129 130 131 132 133 134 135
          136 137 138 139 140 141 142 143 144 145 146 147 148 149 150
          151 152 153 154 155 156 157 158 159 160 161 162 163 164 165
          166 167 168 169 170 171 172 173 174 175 176 177 178 179 180
          181 182 183 184 185 186 187 188 189 190 191 192 193 194 195
          196 197 198 199 200 201 202 203 204 205 206 207 208 209 210
          211 212 213 214 215 216 217 218 219 220 221 222 223 224 225
          226 227 228 229 230 231 232 233 234 235 236 237 238 239 240
          241 242 243 244 245 246 247 248 249 250 251 252 253 254 255
          256 257 258 259 260 261 262 263 264 265 266 267 268 269 270
          271 272 273 274 275 276 277 278 279 280 281 282 283 284 285
          286 287 288 289 290 291 292 293 294 295 296 297 298 299 300
          301 302 303 304 305 306 307 308 309 310 311 312 313 314 315
          316 317 318 319 320 321 322 323 324 325 326 327 328 329 330
          331 332 333 334 335 336 337 338 339 340 341 342 343 344 345
          346 347 348 349 350 351 352 353 354 355 356 357 358 359 360
          361 362 363 364 365 366 367 368 369 370 371 372 373 374 375
          376 377 378 379 380 381 382 383 384 385 386 387 388 389 390
          391 392 393 394 395 396 397 398 399 400 401 402 403 404 405
          406 407 408 409 410 411 412 413 414 415 416 417 418 419 420
          421 422 423 424 425 426 427 428 429 430 431 432 433 434 435
          436 437 438 439 440 441 442 443 444 445 446 447 448 449 450
          451 452 453 454 455 456 457 458 459 460 461 462 463 464 465
          466 467 468 469 470 471 472 473 474 475 476 477 478 479 480
          481 482 483 484 485 486 487 488 489 490 491 492 493 494 495
          496 497 498 499 500 501 502 503 504 505 506 507 508 509 510
          511 512 513 514 515 516 517 518 519 520 521 522 523 524 525
          526 527 528 529 530 531 532 533 534 535 536 537 538 539 540
          541 542 543 544 545 546 547 548 549 550 551 552 553 554 555
          556 557 558 559 560 561 562 563 564 565 566 567 568 569 570
          571 572 573 574 575 576 577 578 579 580 581 582 583 584 585
          586 587 588 589 590 591 592 593 594 595 596 597 598 599 600
          601 602 603 604 605 606 607 608 609 610 611 612 613 614 615
          616 617 618 619 620 621 622 623 624 625 626 627 628 629 630
          631 632 633 634 635 636 637 638 639 640 641 642 643 644 645
          646 647 648 649 650 651 652 653 654 655 656 657 658 659 660
          661 662 663 664 665 666 667 668 669 670 671 672 673 674 675
          676 677 678 679 680 681 682 683 684 685 686 687 688 689 690
          691 692 693 694 695 696 697 698 699 700 701 702 703 704 705
          706 707 708 709 710 711 712 713 714 715 716 717 718 719 720
          721 722 723 724 725 726 727 728 729 730 731 732 733 734 735
          736 737 738 739 740 741 742 743 744 745 746 747 748 749 750
          751 752 753 754 755 756 757 758 759 760 761 762 763 764 765
          766 767 768 769 770 771 772 773 774 775 776 777 778 779 780
          781 782 783 784 785 786 787 788 789 790 791 792 793 794 795
          796 797 798 799 800 801 802 803 804 805 806 807 808 809 810
          811 812 813 814 815 816 817 818 819 820 821 822 823 824 825
          826 827 828 829 830 831 832 833 834 835 836 837 838 839 840
          841 842 843 844 845 846 847 848 849 850 851 852 853 854 855
          856 857 858 859 860 861 862 863 864 865 866 867 868 869 870
          871 872 873 874 875 876 877 878 879 880 881 882 883 884 885
          886 887 888 889 890 891 892 893 894 895 896 897 898 899 900
          901 902 903 904 905 906 907 908 909 910 911 912 913 914 915
          916 917 918 919 920 921 922 923 924 925 926 927 928 929 930
          931 932 933 934 935 936 937 938 939 940 941 942 943 944 945
          946 947 948 949 950 951 952 953 954 955 956 957 958 959 960
          961 962 963 964 965 966 967 968 969 970 971 972 973 974 975
          976 977 978 979 980 981 982 983 984 985 986 987 988 989 990
          991 992 993 994 995 996 997 998 999 1000 1001 1002 1003 1004
          1005 1006 1007 1008 1009 1010 1011 1012 1013 1014 1015 1016
          1017 1018 1019 1020 1021 1022 1023 1024 1025 1026 1027 1028
          1029 1030 1031 1032 1033 1034 1035 1036 1037 1038 1039 1040
          1041 1042 1043 1044 1045 1046 1047 1048 1049 1050 1051 1052
          1053 1054 1055 1056 1057 1058 1059 1060 1061 1062 1063 1064
          1065 1066 1067 1068 1069 1070 1071 1072 1073 1074 1075 1076
          1077 1078 1079 1080 1081 1082 1083 1084 1085 1086 1087 1088
          1089 1090 1091 1092 1093 1094 1095 1096 1097 1098 1099 1100
          1101 1102 1103 1104 1105 1106 1107 1108 1109 1110 1111 1112
          1113 1114 1115 1116 1117 1118 1119 1120 1121 1122 1123 1124
          1125 1126 1127 1128 1129 1130 1131 1132 1133 1134 1135 1136
          1137 1138 1139 1140 1141 1142 1143 1144 1145 1146 1147 1148
          1149 1150 1151 1152 1153 1154 1155 1156 1157 1158 1159 1160
          1161 1162 1163 1164 1165 1166 1167 1168 1169 1170 1171 1172
          1173 1174 1175 1176 1177 1178 1179 1180 1181 1182 1183 1184
          1185 1186 1187 1188 1189 1190 1191 1192 1193 1194 1195 1196
          1197 1198 1199 1200 1201 1202 1203 1204 1205 1206 1207 1208
          1209 1210 1211 1212 1213 1214 1215 1216 1217 1218 1219 1220
          1221 1222 1223 1224 1225 1226 1227 1228 1229 1230 1231 1232
          1233 1234 1235 1236 1237 1238 1239 1240 1241 1242 1243 1244
          1245 1246 1247 1248 1249 1250 1251 1252 1253 1254 1255 1256
          1257 1258 1259 1260 1261 1262 1263 1264 1265 1266 1267 1268
          1269 1270 1271 1272 1273 1274 1275 1276 1277 1278 1279 1280
          1281 1282 1283 1284 1285 1286 1287 1288 1289 1290 1291 1292
          1293 1294 1295 1296 1297 1298 1299 1300 1301 1302 1303 1304
          1305 1306 1307 1308 1309 1310 1311 1312 1313 1314 1315 1316
          1317 1318 1319 1320 1321 1322 1323 1324 1325 1326 1327 1328
          1329 1330 1331 1332 1333 1334 1335 1336 1337 1338 1339 1340
          1341 1342 1343 1344 1345 1346 1347 1348 1349 1350 1351 1352
          1353 1354 1355 1356 1357 1358 1359 1360 1361 1362 1363 1364
          1365 1366 1367 1368 1369 1370 1371 1372 1373 1374 1375 1376
          1377 1378 1379 1380 1381 1382 1383 1384 1385 1386 1387 1388
          1389 1390 1391 1392 1393 1394 1395 1396 1397 1398 1399 1400
          1401 1402 1403 1404 1405 1406 1407 1408 1409 1410 1411 1412
          1413 1414 1415 1416 1417 1418 1419 1420 1421 1422 1423 1424
          1425 1426 1427 1428 1429 1430 1431 1432 1433 1434 1435 1436
          1437 1438 1439 1440 1441 1442 1443 1444 1445 1446 1447 1448
          1449 1450 1451 1452 1453 1454 1455 1456 1457 1458 1459 1460
          1461 1462 1463 1464 1465 1466 1467 1468 1469 1470 1471 1472
          1473 1474 1475 1476 1477 1478 1479 1480 1481 1482 1483 1484
          1485 1486 1487 1488 1489 1490 1491 1492 1493 1494 1495 1496
          1497 1498 1499 1500 1501 1502 1503 1504 1505 1506 1507 1508
          1509 1510 1511 1512 1513 1514 1515 1516 1517 1518 1519 1520
          1521 1522 1523 1524 1525 1526 1527 1528 1529 1530 1531 1532
          1533 1534 1535 1536 1537 1538 1539 1540 1541 1542 1543 1544
          1545 1546 1547 1548 1549 1550 1551 1552 1553 1554 1555 1556
          1557 1558 1559 1560 1561 1562 1563 1564 1565 1566 1567 1568
          1569 1570 1571 1572 1573 1574 1575 1576 1577 1578 1579 1580
          1581 1582 1583 1584 1585 1586 1587 1588 1589 1590 1591 1592
          1593 1594 1595 1596 1597 1598 1599 1600 1601 1602 1603 1604
          1605 1606 1607 1608 1609 1610 1611 1612 1613 1614 1615 1616
          1617 1618 1619 1620 1621 1622 1623 1624 1625 1626 1627 1628
          1629 1630 1631 1632 1633 1634 1635 1636 1637 1638 1639 1640
          1641 1642 1643 1644 1645 1646 1647 1648 1649 1650 1651 1652
          1653 1654 1655 1656 1657 1658 1659 1660 1661 1662 1663 1664
          1665 1666 1667 1668 1669 1670 1671 1672 1673 1674 1675 1676
          1677 1678 1679 1680 1681 1682 1683 1684 1685 1686 1687 1688
          1689 1690 1691 1692 1693 1694 1695 1696 1697 1698 1699 1700
          1701 1702 1703 1704 1705 1706 1707 1708 1709 1710 1711 1712
          1713 1714 1715 1716 1717 1718 1719 1720 1721 1722 1723 1724
          1725 1726 1727 1728 1729 1730 1731 1732 1733 1734 1735 1736
          1737 1738 1739 1740 1741 1742 1743 1744 1745 1746 1747 1748
          1749 1750 1751 1752 1753 1754 1755 1756 1757 1758 1759 1760
          1761 1762 1763 1764 1765 1766 1767 1768 1769 1770 1771 1772
          1773 1774 1775 1776 1777 1778 1779 1780 1781 1782 1783 1784
          1785 1786 1787 1788 1789 1790 1791 1792 1793 1794 1795 1796
          1797 1798 1799 1800 1801 1802 1803 1804 1805 1806 1807 1808
          1809 1810 1811 1812 1813 1814 1815 1816 1817 1818 1819 1820
          1821 1822 1823 1824 1825 1826 1827 1828 1829 1830 1831 1832
          1833 1834 1835 1836 1837 1838 1839 1840 1841 1842 1843 1844
          1845 1846 1847 1848 1849 1850 1851 1852 1853 1854 1855 1856
          1857 1858 1859 1860 1861 1862 1863 1864 1865 1866 1867 1868
          1869 1870 1871 1872 1873 1874 1875 1876 1877 1878 1879 1880
          1881 1882 1883 1884 1885 1886 1887 1888 1889 1890 1891 1892
          1893 1894 1895 1896 1897 1898 1899 1900 1901 1902 1903 1904
          1905 1906 1907 1908 1909 1910 1911 1912 1913 1914 1915 1916
          1917 1918 1919 1920 1921 1922 1923 1924 1925 1926 1927 1928
          1929 1930 1931 1932 1933 1934 1935 1936 1937 1938 1939 1940
          1941 1942 1943 1944 1945 1946 1947 1948 1949 1950 1951 1952
          1953 1954 1955 1956 1957 1958 1959 1960 1961 1962 1963 1964
          1965 1966 1967 1968 1969 1970 1971 1972 1973 1974 1975 1976
          1977 1978 1979 1980 1981 1982 1983 1984 1985 1986 1987 1988
          1989 1990 1991 1992 1993 1994 1995 1996 1997 1998 1999 2000
          2001 2002 2003 2004 2005 2006 2007 2008 2009 2010 2011 2012
          2013 2014 2015 2016 2017 2018 2019 2020 2021 2022 2023 2024
          2025 2026 2027 2028 2029 2030 2031 2032 2033 2034 2035 2036
          2037 2038 2039 2040 2041 2042 2043 2044 2045 2046 2047 2048
          2049 2050 2051 2052 2053 2054 2055 2056 2057 2058 2059 2060
          2061 2062 2063 2064 2065 2066 2067 2068 2069 2070 2071 2072
          2073 2074 2075 2076 2077 2078 2079 2080 2081 2082 2083 2084
          2085 2086 2087 2088 2089 2090 2091 2092 2093 2094 2095 2096
          2097 2098 2099 2100 2101 2102 2103 2104 2105 2106 2107 2108
          2109 2110 2111 2112 2113 2114 2115 2116 2117 2118 2119 2120
          2121 2122 2123 2124 2125 2126 2127 2128 2129 2130 2131 2132
          2133 2134 2135 2136 2137 2138 2139 2140 2141 2142 2143 2144
          2145 2146 2147 2148 2149 2150 2151 2152 2153 2154 2155 2156
          2157 2158 2159 2160 2161 2162 2163 2164 2165 2166 2167 2168
          2169 2170 2171 2172 2173 2174 2175 2176 2177 2178 2179 2180
          2181 2182 2183 2184 2185 2186 2187 2188 2189 2190 2191 2192
          2193 2194 2195 2196 2197 2198 2199 2200 2201 2202 2203 2204
          2205 2206 2207 2208 2209 2210 2211 2212 2213 2214 2215 2216
          2217 2218 2219 2220 2221 2222 2223 2224 2225 2226 2227 2228
          2229 2230 2231 2232 2233 2234 2235 2236 2237 2238 2239 2240
          2241 2242 2243 2244 2245 2246 2247 2248 2249 2250 2251 2252
          2253 2254 2255 2256 2257 2258 2259 2260 2261 2262 2263 2264
          2265 2266 2267 2268 2269 2270 2271 2272 2273 2274 2275 2276
          2277 2278 2279 2280 2281 2282 2283 2284 2285 2286 2287 2288
          2289 2290 2291 2292 2293 2294 2295 2296 2297 2298 2299 2300
          2301 2302 2303 2304 2305 2306 2307 2308 2309 2310 2311 2312
          2313 2314 2315 2316 2317 2318 2319 2320 2321 2322 2323 2324
          2325 2326 2327 2328 2329 2330 2331 2332 2333 2334 2335 2336
          2337 2338 2339 2340 2341 2342 2343 2344 2345 2346 2347 2348
          2349 2350 2351 2352 2353 2354 2355 2356 2357 2358 2359 2360
          2361 2362 2363 2364 2365 2366 2367 2368 2369 2370 2371 2372
          2373 2374 2375 2376 2377 2378 2379 2380 2381 2382 2383 2384
          2385 2386 2387 2388 2389 2390 2391 2392 2393 2394 2395 2396
          2397 2398 2399 2400 2401 2402 2403 2404 2405 2406 2407 2408
          2409 2410 2411 2412 2413 2414 2415 2416 2417 2418 2419 2420
          2421 2422 2423 2424 2425 2426 2427 2428 2429 2430 2431 2432
          2433 2434 2435 2436 2437 2438 2439 2440 2441 2442 2443 2444
          2445 2446 2447 2448 2449 2450 2451 2452 2453 2454 2455 2456
          2457 2458 2459 2460 2461 2462 2463 2464 2465 2466 2467 2468
          2469 2470 2471 2472 2473 2474 2475 2476 2477 2478 2479 2480
          2481 2482 2483 2484 2485 2486 2487 2488 2489 2490 2491 2492
          2493 2494 2495 2496 2497 2498 2499 2500 2501 2502 2503 2504
          2505 2506 2507 2508 2509 2510 2511 2512 2513 2514 2515 2516
          2517 2518 2519 2520 2521 2522 2523 2524 2525 2526 2527 2528
          2529 2530 2531 2532 2533 2534 2535 2536 2537 2538 2539 2540
          2541 2542 2543 2544 2545 2546 2547 2548 2549 2550 2551 2552
          2553 2554 2555 2556 2557 2558 2559 2560 2561 2562 2563 2564
          2565 2566 2567 2568 2569 2570 2571 2572 2573 2574 2575 2576
          2577 2578 2579 2580 2581 2582 2583 2584 2585 2586 2587 2588
          2589 2590 2591 2592 2593 2594 2595 2596 2597 2598 2599 2600
          2601 2602 2603 2604 2605 2606 2607 2608 2609 2610 2611 2612
          2613 2614 2615 2616 2617 2618 2619 2620 2621 2622 2623 2624
          2625 2626 2627 2628 2629 2630 2631 2632 2633 2634 2635 2636
          2637 2638 2639 2640 2641 2642 2643 2644 2645 2646 2647 2648
          2649 2650 2651 2652 2653 2654 2655 2656 2657 2658 2659 2660
          2661 2662 2663 2664 2665 2666 2667 2668 2669 2670 2671 2672
          2673 2674 2675 2676 2677 2678 2679 2680 2681 2682 2683 2684
          2685 2686 2687 2688 2689 2690 2691 2692 2693 2694 2695 2696
          2697 2698 2699 2700 2701 2702 2703 2704 2705 2706 2707 2708
          2709 2710 2711 2712 2713 2714 2715 2716 2717 2718 2719 2720
          2721 2722 2723 2724 2725 2726 2727 2728 2729 2730 2731 2732
          2733 2734 2735 2736 2737 2738 2739 2740 2741 2742 2743 2744
          2745 2746 2747 2748 2749 2750 2751 2752 2753 2754 2755 2756
          2757 2758 2759 2760 2761 2762 2763 2764 2765 2766 2767 2768
          2769 2770 2771 2772 2773 2774 2775 2776 2777 2778 2779 2780
          2781 2782 2783 2784 2785 2786 2787 2788 2789 2790 2791 2792
          2793 2794 2795 2796 2797 2798 2799 2800 2801 2802 2803 2804
          2805 2806 2807 2808 2809 2810 2811 2812 2813 2814 2815 2816
          2817 2818 2819 2820 2821 2822 2823 2824 2825 2826 2827 2828
          2829 2830 2831 2832 2833 2834 2835 2836 2837 2838 2839 2840
          2841 2842 2843 2844 2845 2846 2847 2848 2849 2850 2851 2852
          2853 2854 2855 2856 2857 2858 2859 2860 2861 2862 2863 2864
          2865 2866 2867 2868 2869 2870 2871 2872 2873 2874 2875 2876
          2877 2878 2879 2880 2881 2882 2883 2884 2885 2886 2887 2888
          2889 2890 2891 2892 2893 2894 2895 2896 2897 2898 2899 2900
          2901 2902 2903 2904 2905 2906 2907 2908 2909 2910 2911 2912
          2913 2914 2915 2916 2917 2918 2919 2920 2921 2922 2923 2924
          2925 2926 2927 2928 2929 2930 2931 2932 2933 2934 2935 2936
          2937 2938 2939 2940 2941 2942 2943 2944 2945 2946 2947 2948
          2949 2950 2951 2952 2953 2954 2955 2956 2957 2958 2959 2960
          2961 2962 2963 2964 2965 2966 2967 2968 2969 2970 2971 2972
          2973 2974 2975 2976 2977 2978 2979 2980 2981 2982 2983 2984
          2985 2986 2987 2988 2989 2990 2991 2992 2993 2994 2995 2996
          2997 2998 2999 3000 3001 3002 3003 3004 3005 3006 3007 3008
          3009 3010 3011 3012 3013 3014 3015 3016 3017 3018 3019 3020
          3021 3022 3023 3024 3025 3026 3027 3028 3029 3030 3031 3032
          3033 3034 3035 3036 3037 3038 3039 3040 3041 3042 3043 3044
          3045 3046 3047 3048 3049 3050 3051 3052 3053 3054 3055 3056
          3057 3058 3059 3060 3061 3062 3063 3064 3065 3066 3067 3068
          3069 3070 3071 3072 3073 3074 3075 3076 3077 3078 3079 3080
          3081 3082 3083 3084 3085 3086 3087 3088 3089 3090 3091 3092
          3093 3094 3095 3096 3097 3098 3099 3100 3101 3102 3103 3104
          3105 3106 3107 3108 3109 3110 3111 3112 3113 3114 3115 3116
          3117 3118 3119 3120 3121 3122 3123 3124 3125 3126 3127 3128
          3129 3130 3131 3132 3133 3134 3135 3136 3137 3138 3139 3140
          3141 3142 3143 3144 3145 3146 3147 3148 3149 3150 3151 3152
          3153 3154 3155 3156 3157 3158 3159 3160 3161 3162 3163 3164
          3165 3166 3167 3168 3169 3170 3171 3172 3173 3174 3175 3176
          3177 3178 3179 3180 3181 3182 3183 3184 3185 3186 3187 3188
          3189 3190 3191 3192 3193 3194 3195 3196 3197 3198 3199 3200
          3201 3202 3203 3204 3205 3206 3207 3208 3209 3210 3211 3212
          3213 3214 3215 3216 3217 3218 3219 3220 3221 3222 3223 3224
          3225 3226 3227 3228 3229 3230 3231 3232 3233 3234 3235 3236
          3237 3238 3239 3240 3241 3242 3243 3244 3245 3246 3247 3248
          3249 3250 3251 3252 3253 3254 3255 3256 3257 3258 3259 3260
          3261 3262 3263 3264 3265 3266 3267 3268 3269 3270 3271 3272
          3273 3274 3275 3276 3277 3278 3279 3280 3281 3282 3283 3284
          3285 3286 3287 3288 3289 3290 3291 3292 3293 3294 3295 3296
          3297 3298 3299 3300 3301 3302 3303 3304 3305 3306 3307 3308
          3309 3310 3311 3312 3313 3314 3315 3316 3317 3318 3319 3320
          3321 3322 3323 3324 3325 3326 3327 3328 3329 3330 3331 3332
          3333 3334 3335 3336 3337 3338 3339 3340 3341 3342 3343 3344
          3345 3346 3347 3348 3349 3350 3351 3352 3353 3354 3355 3356
          3357 3358 3359 3360 3361 3362 3363 3364 3365 3366 3367 3368
          3369 3370 3371 3372 3373 3374 3375 3376 3377 3378 3379 3380
          3381 3382 3383 3384 3385 3386 3387 3388 3389 3390 3391 3392
          3393 3394 3395 3396 3397 3398 3399 3400 3401 3402 3403 3404
          3405 3406 3407 3408 3409 3410 3411 3412 3413 3414 3415 3416
          3417 3418 3419 3420 3421 3422 3423 3424 3425 3426 3427 3428
          3429 3430 3431 3432 3433 3434 3435 3436 3437 3438 3439 3440
          3441 3442 3443 3444 3445 3446 3447 3448 3449 3450 3451 3452
          3453 3454 3455 3456 3457 3458 3459 3460 3461 3462 3463 3464
          3465 3466 3467 3468 3469 3470 3471 3472 3473 3474 3475 3476
          3477 3478 3479 3480 3481 3482 3483 3484 3485 3486 3487 3488
          3489 3490 3491 3492 3493 3494 3495 3496 3497 3498 3499 3500
          3501 3502 3503 3504 3505 3506 3507 3508 3509 3510 3511 3512
          3513 3514 3515 3516 3517 3518 3519 3520 3521 3522 3523 3524
          3525 3526 3527 3528 3529 3530 3531 3532 3533 3534 3535 3536
          3537 3538 3539 3540 3541 3542 3543 3544 3545 3546 3547 3548
          3549 3550 3551 3552 3553 3554 3555 3556 3557 3558 3559 3560
          3561 3562 3563 3564 3565 3566 3567 3568 3569 3570 3571 3572
          3573 3574 3575 3576 3577 3578 3579 3580 3581 3582 3583 3584
          3585 3586 3587 3588 3589 3590 3591 3592 3593 3594 3595 3596
          3597 3598 3599 3600 3601 3602 3603 3604 3605 3606 3607 3608
          3609 3610 3611 3612 3613 3614 3615 3616 3617 3618 3619 3620
          3621 3622 3623 3624 3625 3626 3627 3628 3629 3630 3631 3632
          3633 3634 3635 3636 3637 3638 3639 3640 3641 3642 3643 3644
          3645 3646 3647 3648 3649 3650 3651 3652 3653 3654 3655 3656
          3657 3658 3659 3660 3661 3662 3663 3664 3665 3666 3667 3668
          3669 3670 3671 3672 3673 3674 3675 3676 3677 3678 3679 3680
          3681 3682 3683 3684 3685 3686 3687 3688 3689 3690 3691 3692
          3693 3694 3695 3696 3697 3698 3699 3700 3701 3702 3703 3704
          3705 3706 3707 3708 3709 3710 3711 3712 3713 3714 3715 3716
          3717 3718 3719 3720 3721 3722 3723 3724 3725 3726 3727 3728
          3729 3730 3731 3732 3733 3734 3735 3736 3737 3738 3739 3740
          3741 3742 3743 3744 3745 3746 3747 3748 3749 3750 3751 3752
          3753 3754 3755 3756 3757 3758 3759 3760 3761 3762 3763 3764
          3765 3766 3767 3768 3769 3770 3771 3772 3773 3774 3775 3776
          3777 3778 3779 3780 3781 3782 3783 3784 3785 3786 3787 3788
          3789 3790 3791 3792 3793 3794 3795 3796 3797 3798 3799 3800
          3801 3802 3803 3804 3805 3806 3807 3808 3809 3810 3811 3812
          3813 3814 3815 3816 3817 3818 3819 3820 3821 3822 3823 3824
          3825 3826 3827 3828 3829 3830 3831 3832 3833 3834 3835 3836
          3837 3838 3839 3840 3841 3842 3843 3844 3845 3846 3847 3848
          3849 3850 3851 3852 3853 3854 3855 3856 3857 3858 3859 3860
          3861 3862 3863 3864 3865 3866 3867 3868 3869 3870 3871 3872
          3873 3874 3875 3876 3877 3878 3879 3880 3881 3882 3883 3884
          3885 3886 3887 3888 3889 3890 3891 3892 3893 3894 3895 3896
          3897 3898 3899 3900 3901 3902 3903 3904 3905 3906 3907 3908
          3909 3910 3911 3912 3913 3914 3915 3916 3917 3918 3919 3920
          3921 3922 3923 3924 3925 3926 3927 3928 3929 3930 3931 3932
          3933 3934 3935 3936 3937 3938 3939 3940 3941 3942 3943 3944
          3945 3946 3947 3948 3949 3950 3951 3952 3953 3954 3955 3956
          3957 3958 3959 3960 3961 3962 3963 3964 3965 3966 3967 3968
          3969 3970 3971 3972 3973 3974 3975 3976 3977 3978 3979 3980
          3981 3982 3983 3984 3985 3986 3987 3988 3989 3990 3991 3992
          3993 3994 3995 3996 3997 3998 3999 4000 4001 4002 4003 4004
          4005 4006 4007 4008 4009 4010 4011 4012 4013 4014 4015 4016
          4017 4018 4019 4020 4021 4022 4023 4024 4025 4026 4027 4028
          4029 4030 4031 4032 4033 4034 4035 4036 4037 4038 4039 4040
          4041 4042 4043 4044 4045 4046 4047 4048 4049 4050 4051 4052
          4053 4054 4055 4056 4057 4058 4059 4060 4061 4062 4063 4064
          4065 4066 4067 4068 4069 4070 4071 4072 4073 4074 4075 4076
          4077 4078 4079 4080 4081 4082 4083 4084 4085 4086 4087 4088
          4089 4090 4091 4092 4093 4094 4095 4096 4097 4098 4099 4100
          4101 4102 4103 4104 4105 4106 4107 4108 4109 4110 4111 4112
          4113 4114 4115 4116 4117 4118 4119 4120 4121 4122 4123 4124
          4125 4126 4127 4128 4129 4130 4131 4132 4133 4134 4135 4136
          4137 4138 4139 4140 4141 4142 4143 4144 4145 4146 4147 4148
          4149 4150 4151 4152 4153 4154 4155 4156 4157 4158 4159 4160
          4161 4162 4163 4164 4165 4166 4167 4168 4169 4170 4171 4172
          4173 4174 4175 4176 4177 4178 4179 4180 4181 4182 4183 4184
          4185 4186 4187 4188 4189 4190 4191 4192 4193 4194 4195 4196
          4197 4198 4199 4200 4201 4202 4203 4204 4205 4206 4207 4208
          4209 4210 4211 4212 4213 4214 4215 4216 4217 4218 4219 4220
          4221 4222 4223 4224 4225 4226 4227 4228 4229 4230 4231 4232
          4233 4234 4235 4236 4237 4238 4239 4240 4241 4242 4243 4244
          4245 4246 4247 4248 4249 4250 4251 4252 4253 4254 4255 4256
          4257 4258 4259 4260 4261 4262 4263 4264 4265 4266 4267 4268
          4269 4270 4271 4272 4273 4274 4275 4276 4277 4278 4279 4280
[...]
        145     -2.3003755E-04
        146     -3.4783174E-04
        147     -2.8879683E-04
        148     -3.5808442E-04
        149     -3.2642893E-04
        150     -2.6693253E-04
        151     -4.4780746E-04
        152     -2.3787449E-04
        153     -3.2289470E-04
        154     -3.8524793E-04
        155     -2.9374977E-04
        156     -3.2054034E-04
        157     -1.8538458E-04
        158     -4.7916118E-04
        159     -3.2614971E-04
        160     -1.7345058E-04
        161     -3.3562040E-04
        162     -4.9449767E-04
        163     -2.9083984E-04
        164     -2.1518348E-04
        165     -3.2370849E-04
        166     -3.6826814E-04
        167     -3.6507650E-04
        168     -3.7576217E-04
        169     -4.9230753E-04
        170     -3.5746348E-04
        171     -4.1907620E-04
        172     -2.3955173E-04
        173     -3.6470083E-04
        174     -3.7520378E-04
        175     -4.4049576E-04
        176     -2.3224741E-04
        177     -4.2650122E-04
        178     -3.4486721E-04
        179     -1.4525310E-04
        180     -2.4792431E-04
        181     -3.8611620E-04
        182     -2.5217392E-04
        183      2.2089041E-05
        184     -3.6552588E-04
        185     -7.8757688E-05
        186      6.3756951E-04
        187     -1.8776989E-04
        188     -1.6630556E-03
        194     -3.6132600E-04
        195     -3.3455915E-04
        196     -3.6972235E-04
        293     -2.4080070E-03
        294      1.2441760E-03
        295      1.5086148E-04
        296     -5.7792936E-04
        297     -1.2034897E-04
        298     -1.1096923E-04
        299     -6.1197725E-04
        300     -2.1126970E-04
        301     -1.5696938E-04
        302     -2.8647705E-04
        303     -3.2917798E-04
        304     -2.5342615E-04
        305     -2.0700870E-04
        306     -3.7383232E-04
        307     -2.9304250E-04
        308     -3.1443968E-04
        309     -2.8474903E-04
        310     -2.7309637E-04
        311     -4.1949271E-04
        312     -2.1710926E-04
        313     -3.4525161E-04
        314     -4.7534042E-04
        315     -3.0374054E-04
        316     -2.6925456E-04
        317     -3.8643423E-04
        318     -2.6571862E-04
        319     -4.4893814E-04
        320     -3.6625108E-04
        321     -4.6867348E-04
        322     -3.5004735E-04
        323     -2.7616720E-04
        324     -3.7926070E-04
        325     -5.5831674E-04
        326     -2.7206219E-04
        327     -5.8434390E-04
        328     -4.2349364E-04
        329     -3.9512474E-04
        330     -3.7299265E-04
        331     -4.0868505E-04
        332     -2.7287907E-04
        333     -3.8509206E-04
        334     -4.7314433E-04
        335     -4.6103865E-04
        336     -4.6159525E-04
        337     -3.1465057E-04
        338     -4.8772009E-04
        339     -3.0621255E-04
        340     -4.7192958E-04
        341     -3.3251630E-04
        342     -3.8352310E-04
        343     -1.9955428E-04
        344     -4.8006067E-04
        345     -3.0476237E-04
        346     -3.1921925E-04
        347     -1.8116769E-04
        348     -3.6479687E-04
        349     -4.0545223E-04
        350     -3.2103403E-04
        351     -2.4012899E-04
        352     -3.9399471E-04
        353     -2.5509828E-04
        354     -3.9030369E-04
        355     -2.6680325E-04
        356     -1.8240920E-04
        357     -4.1842852E-04
        358     -2.3238195E-04
        359     -3.7817841E-04
        360     -3.2613584E-04
        361     -3.3071662E-04
        362     -3.2721342E-04
        363     -4.9839056E-04
        364     -2.2228638E-04
        365     -3.5437038E-04
        366     -5.0887061E-04
        367     -3.4435049E-04
        368     -3.7035134E-04
        369     -2.6685927E-04
        370     -3.7580856E-04
        371     -4.2419872E-04
        372     -4.3533915E-04
        373     -3.3281296E-04
        374     -3.8084826E-04
        375     -3.7822441E-04
        376     -1.9259994E-04
        377     -2.1819090E-04
        378     -3.2598353E-04
        379     -3.6410887E-04
        380     -2.0716065E-04
        381      6.7734240E-06
        382     -1.9245423E-04
        383     -3.0041620E-04
        384      7.8484112E-04
        385      3.9764697E-05
        386     -1.9595606E-03
        392     -4.1431028E-04
        393     -2.6639547E-04
        394     -3.6472108E-04
        879     -5.9019786E-04
        880      1.0119001E-03
        881      2.9624126E-03
        882      2.8551077E-03
        883      2.7982827E-03
        884     -4.5897530E-03
        885     -4.8539433E-03
        886     -4.9168335E-03
        887     -4.2551922E-03
        888     -4.2819077E-03
        889      2.5924741E-03
        890      8.7792647E-04
        891     -3.5717159E-04
        892     -7.6754950E-04
        893     -6.9537621E-04
        894     -9.1294283E-04
        895     -4.8270679E-04
        896     -8.0722433E-04
        897     -5.4988386E-04
        898     -5.1202893E-04
        899     -2.1337177E-05
        900     -6.5260032E-04
        901     -3.8896996E-04
        902      1.1844537E-04
        903     -3.9312041E-04
        904     -5.2907984E-04
        905     -4.6624162E-04
        906     -4.9503967E-04
        907     -6.3812664E-04
        908     -4.2134529E-04
        909     -5.3056243E-04
        910     -7.1396773E-04
        911     -4.4967358E-04
        912     -4.3634140E-04
        913     -6.5952443E-04
        914     -4.4962938E-04
        915     -4.2308432E-04
        916     -5.9477751E-04
        917     -5.4602936E-04
        918     -4.6601995E-04
        919     -5.6180149E-04
        920     -5.2984545E-04
        921     -5.9983203E-04
        922     -4.6929804E-04
        923     -4.5435574E-04
        924     -4.7549783E-04
        925     -4.8934175E-04
        926     -4.6143320E-04
        927     -5.8659381E-04
        928     -6.4962955E-04
        929     -6.3092978E-04
        930     -5.3301740E-04
        931     -5.3522790E-04
        932     -6.0833746E-04
        933     -6.0836189E-04
        934     -6.7572832E-04
        935     -7.1932108E-04
        936     -6.4547099E-04
        937     -5.1152269E-04
        938     -5.4910997E-04
        939     -3.8130575E-04
        940     -6.6009471E-04
        941     -6.7663607E-04
        942     -7.3835468E-04
        943     -6.5009669E-04
        944     -9.1476532E-04
        945     -5.3583133E-04
        946     -3.9541116E-04
        947     -5.0114091E-04
        948     -6.3836917E-04
        949     -4.5460863E-04
        950     -5.1747312E-04
        951     -8.1602576E-04
        952     -6.1209626E-04
        953     -5.7686072E-04
        954     -6.7379509E-04
        955     -6.1096715E-04
        956     -4.8434544E-04
        957     -6.2306176E-04
        958     -5.2123761E-04
        959     -6.6885270E-04
        960     -7.8540209E-04
        961     -7.0482752E-04
        962     -6.3447737E-04
        963     -6.6928696E-04
        964     -6.1410963E-04
        965     -5.8248649E-04
        966     -6.0710124E-04
        967     -5.9106332E-04
        968     -7.0565210E-04
        969     -5.9991798E-04
        970     -4.6500654E-04
        971     -4.1349918E-04
        972     -6.3775585E-04
        973     -4.8932702E-04
        974     -6.4279487E-04
        975     -7.5644346E-04
        976     -1.0470695E-03
        977     -8.3948907E-04
        978     -7.6179605E-04
        979     -6.5417974E-04
        980     -7.3912620E-04
        981     -6.1220423E-04
        982     -5.4748159E-04
        983     -6.3377997E-04
        984     -6.7522978E-04
        985     -5.2120902E-04
        986     -5.0753628E-04
        987     -7.2483006E-04
        988     -5.7196844E-04
        989     -7.6871917E-04
        990     -8.5155687E-04
        991     -6.5612439E-04
        992     -7.0376496E-04
        993     -7.8910299E-04
        994     -6.7836377E-04
        995     -6.5045375E-04
        996     -9.4888821E-04
        997     -7.1317127E-04
        998     -8.2929494E-04
        999     -7.3727003E-04
       1000     -6.3768864E-04
       1001     -9.0798204E-04
       1002     -9.7299179E-04
       1003     -6.5155471E-04
       1004     -7.5102435E-04
       1005     -5.9122017E-04
       1006     -7.4306923E-04
       1007     -8.6500313E-04
       1008     -8.2312898E-04
       1009     -7.0770360E-04
       1010     -7.5108844E-04
       1011     -6.0359317E-04
       1012     -5.3795657E-04
       1013     -7.7414315E-04
       1014     -7.7386094E-04
       1015     -7.8594435E-04
       1016     -7.1011936E-04
       1017     -8.8972937E-04
       1018     -7.6437492E-04
       1019     -8.2843263E-04
       1020     -7.0470098E-04
       1021     -6.2317388E-04
       1022     -8.4479721E-04
       1023     -7.5997062E-04
       1024     -8.4279063E-04
       1025     -9.2808240E-04
       1026     -1.0100950E-03
       1027     -6.7375762E-04
       1028     -8.4355748E-04
       1029     -7.4043049E-04
       1030     -7.0106635E-04
       1031     -7.1907828E-04
       1032     -7.6722609E-04
       1033     -7.8386520E-04
       1034     -7.5708541E-04
       1035     -8.2866317E-04
       1036     -1.0070782E-03
       1037     -9.5435711E-04
       1038     -8.7449445E-04
       1039     -8.3038613E-04
       1040     -8.8338165E-04
       1041     -5.2032406E-04
       1042     -6.9615182E-04
       1043     -7.0207881E-04
       1044     -8.5231398E-04
       1045     -7.7183612E-04
       1046     -1.1205224E-03
       1047     -8.2813213E-04
       1048     -8.5903173E-04
       1049     -8.0415867E-04
       1050     -8.2615261E-04
       1051     -6.7107461E-04
       1052     -9.0640150E-04
       1053     -8.8290228E-04
       1054     -7.7731742E-04
       1055     -7.3883310E-04
       1056     -7.0774781E-04
       1057     -7.4944800E-04
       1058     -7.3869775E-04
       1059     -8.5812954E-04
       1060     -9.1711280E-04
       1061     -9.6914740E-04
       1062     -8.4824606E-04
       1063     -8.7733750E-04
       1064     -7.4068343E-04
       1065     -7.2786599E-04
       1066     -7.9494687E-04
       1067     -8.1793217E-04
       1068     -7.5104113E-04
       1069     -8.7072064E-04
       1070     -9.6561345E-04
       1071     -7.9788008E-04
       1072     -7.6439869E-04
       1073     -7.6003361E-04
       1074     -8.3610349E-04
       1075     -7.7540739E-04
       1076     -9.2197681E-04
       1077     -8.4963678E-04
       1078     -8.2539526E-04
       1079     -7.7178920E-04
       1080     -6.5149536E-04
       1081     -7.1412619E-04
       1082     -8.0392178E-04
       1083     -9.2027362E-04
       1084     -8.5629556E-04
       1085     -9.4862628E-04
       1086     -8.2781441E-04
       1087     -8.7692960E-04
       1088     -7.5713774E-04
       1089     -6.5973302E-04
       1090     -6.9100955E-04
       1091     -6.0780801E-04
       1092     -5.9015086E-04
       1093     -7.6633113E-04
       1094     -9.7994497E-04
       1095     -8.1120991E-04
       1096     -7.6910384E-04
       1097     -8.7917656E-04
       1098     -7.4729761E-04
       1099     -7.5977916E-04
       1100     -7.7663939E-04
       1101     -9.8489736E-04
       1102     -9.0754995E-04
       1103     -7.6474250E-04
       1104     -6.1913761E-04
       1105     -6.3838284E-04
       1106     -5.6355017E-04
       1107     -6.2341202E-04
       1108     -8.7177420E-04
       1109     -7.9484597E-04
       1110     -8.9811671E-04
       1111     -9.7850151E-04
       1112     -7.5239580E-04
       1113     -5.5206306E-04
       1114     -6.1654080E-04
       1115     -7.1549418E-04
       1116     -9.4250352E-04
       1117     -6.3399876E-04
       1118     -5.8876064E-04
       1119     -7.7594877E-04
       1120     -6.9400968E-04
       1121     -4.8930843E-04
       1122     -7.6162566E-04
       1123     -8.9386107E-04
       1124     -7.7922270E-04
       1125     -6.3947210E-04
       1126     -3.7013656E-04
       1127     -6.5358215E-04
       1128     -6.2534209E-04
       1129     -6.1234884E-04
       1130     -7.4979451E-04
       1131     -1.0502101E-03
       1132     -7.6534937E-04
       1133     -7.5755334E-04
       1134     -6.1149247E-04
       1135     -5.3127475E-04
       1136     -5.2868425E-04
       1137     -6.8480821E-04
       1138     -7.2558971E-04
       1139     -7.0677500E-04
       1140     -7.4449033E-04
       1141     -5.8032968E-04
       1142     -5.9139847E-04
       1143     -5.6338386E-04
       1144     -5.5241088E-04
       1145     -6.5109418E-04
       1146     -7.3166963E-04
       1147     -7.1123986E-04
       1148     -7.0958952E-04
       1149     -6.4194352E-04
       1150     -5.8659397E-04
       1151     -6.9759061E-04
       1152     -6.2520863E-04
       1153     -6.4096112E-04
       1154     -7.5077869E-04
       1155     -6.9500224E-04
       1156     -6.5526787E-04
       1157     -6.1656518E-04
       1158     -5.9735093E-04
       1159     -6.0341290E-04
       1160     -6.5681370E-04
       1161     -4.2275825E-04
       1162     -6.3630213E-04
       1163     -6.4989437E-04
       1164     -4.5497689E-04
       1165     -5.4074860E-04
       1166     -7.4256422E-04
       1167     -6.1494356E-04
       1168     -5.9670203E-04
       1169     -7.1789720E-04
       1170     -6.3825468E-04
       1171     -7.2690913E-04
       1172     -6.6678837E-04
       1173     -6.4625988E-04
       1174     -6.8982075E-04
       1175     -6.2813373E-04
       1176     -3.7225965E-04
       1177     -5.8012453E-04
       1178     -6.7044449E-04
       1179     -4.9876299E-04
       1180     -6.4157706E-04
       1181     -6.6195799E-04
       1182     -6.4425330E-04
       1183     -6.0711674E-04
       1184     -6.7799375E-04
       1185     -5.5700584E-04
       1186     -7.0939979E-04
       1187     -5.3658855E-04
       1188     -5.4243242E-04
       1189     -7.2369934E-04
       1190     -7.1862451E-04
       1191     -6.2684113E-04
       1192     -6.9863685E-04
       1193     -6.3189430E-04
       1194     -5.9506196E-04
       1195     -6.4013535E-04
       1196     -7.1038053E-04
       1197     -7.1184187E-04
       1198     -6.6573029E-04
       1199     -5.4552533E-04
       1200     -5.3141029E-04
       1201     -4.8549238E-04
       1202     -5.9041450E-04
       1203     -6.0018131E-04
       1204     -6.8848597E-04
       1205     -7.1834917E-04
       1206     -8.3688241E-04
       1207     -6.2090364E-04
       1208     -7.0105334E-04
       1209     -6.9984953E-04
       1210     -6.9736355E-04
       1211     -7.3064456E-04
       1212     -7.0078515E-04
       1213     -6.4165015E-04
       1214     -6.4126259E-04
       1215     -5.4718276E-04
       1216     -5.4571091E-04
       1217     -6.5437369E-04
       1218     -6.7034962E-04
       1219     -7.0978754E-04
       1220     -7.7383925E-04
       1221     -5.8611719E-04
       1222     -6.4797474E-04
       1223     -7.3858178E-04
       1224     -7.0353735E-04
       1225     -6.7674667E-04
       1226     -8.1628905E-04
       1227     -7.9202943E-04
       1228     -6.4561823E-04
       1229     -6.7912445E-04
       1230     -6.0976304E-04
       1231     -6.0063142E-04
       1232     -7.7548665E-04
       1233     -7.7106390E-04
       1234     -7.2557347E-04
       1235     -6.6714567E-04
       1236     -7.6503812E-04
       1237     -8.5019103E-04
       1238     -7.4618070E-04
       1239     -6.6175760E-04
       1240     -7.0760472E-04
       1241     -7.4099387E-04
       1242     -7.7085084E-04
       1243     -7.4053282E-04
       1244     -7.9446776E-04
       1245     -8.0170562E-04
       1246     -6.3970712E-04
       1247     -7.4013944E-04
       1248     -6.7968448E-04
       1249     -7.4814854E-04
       1250     -7.4325870E-04
       1251     -5.9848991E-04
       1252     -7.7439628E-04
       1253     -7.5079512E-04
       1254     -7.2304401E-04
       1255     -7.2599258E-04
       1256     -9.3547196E-04
       1257     -6.0780537E-04
       1258     -7.2274467E-04
       1259     -7.7504834E-04
       1260     -7.7074189E-04
       1261     -7.6035417E-04
       1262     -8.8293641E-04
       1263     -8.6378026E-04
       1264     -8.2333357E-04
       1265     -7.7694584E-04
       1266     -8.6261423E-04
       1267     -7.3680108E-04
       1268     -7.5815632E-04
       1269     -7.4152414E-04
       1270     -6.9265077E-04
       1271     -5.7749948E-04
       1272     -7.2229624E-04
       1273     -7.3756181E-04
       1274     -7.3185939E-04
       1275     -8.4343691E-04
       1276     -8.3715955E-04
       1277     -7.1185725E-04
       1278     -6.0632797E-04
       1279     -7.1923479E-04
       1280     -7.4754229E-04
       1281     -6.6263423E-04
       1282     -8.6423108E-04
       1283     -8.2122883E-04
       1284     -5.4394780E-04
       1285     -5.5699256E-04
       1286     -6.5736118E-04
       1287     -7.6599164E-04
       1288     -7.6709247E-04
       1289     -1.0180614E-03
       1290     -9.4673698E-04
       1291     -8.2393009E-04
       1292     -4.7922990E-04
       1293     -8.5924538E-04
       1294     -5.3387654E-04
       1295     -6.2156962E-04
       1296     -8.3834186E-04
       1297     -9.1921092E-04
       1298     -5.0019381E-04
       1299     -5.0612692E-04
       1300     -4.5812315E-04
       1301     -4.0674108E-04
       1302     -5.6355563E-04
       1303     -6.6099530E-04
       1304     -7.4770059E-04
       1305     -9.0615606E-04
       1306     -6.9019749E-04
       1307     -5.7263217E-04
       1308     -7.5264002E-04
       1309     -6.4573887E-04
       1310     -5.7194430E-04
       1311     -6.6009327E-04
       1312     -7.2490702E-04
       1313     -5.9692797E-04
       1314     -2.9975295E-04
       1315     -1.7818163E-04
       1316     -2.0088538E-04
       1317     -3.9492374E-04
       1318     -4.2381456E-04
       1319     -4.4988155E-04
       1320     -6.4307831E-04
       1321     -5.7520634E-04
       1322     -5.2229571E-04
       1323     -4.3486451E-04
       1324     -5.1605533E-04
       1325     -7.5641500E-04
       1326     -5.4443850E-04
       1327     -3.4746689E-04
       1328     -4.2376925E-04
       1329     -8.3417096E-04
       1330     -5.4655396E-04
       1331     -7.8355471E-04
       1332     -5.2467199E-04
       1333     -5.8940221E-04
       1334      1.3561945E-03
       1335      1.5922128E-03
       1336      1.3226725E-03
       1337      1.1056934E-03
       1338      1.1459958E-03
       1339     -7.9648291E-05
       1340     -2.6076238E-04
       1341     -1.0466577E-05
       1342     -9.4187957E-07
       1343     -2.0073872E-04
       1344     -3.3360032E-03
       1345     -3.4371019E-03
       1346     -3.5037209E-03
       1347     -3.4996521E-03
       1348     -3.2115593E-03
       1374     -6.0265123E-04
       1375     -6.4372881E-04
       1376     -5.0858855E-04
       1377     -6.1996351E-04
       1378     -5.9287154E-04
       1379     -8.2906952E-04
       1380     -7.4744723E-04
       1381     -6.2198098E-04
       1382     -6.5532298E-04
       1383     -5.2096867E-04
       1384     -7.4492016E-04
       1385     -6.3261110E-04
       1386     -8.0094437E-04
       1387     -7.0959272E-04
       1388     -6.3874882E-04

 MAXIMUM         2.9624E-03
 AT NODE               881

 MINIMUM        -4.9168E-03
 AT NODE               886


          THE ANALYSIS HAS BEEN COMPLETED



                              ANALYSIS COMPLETE
                              WITH      3 WARNING MESSAGES ON THE DAT FILE



     JOB TIME SUMMARY
       USER TIME (SEC)      =   6.2000    
       SYSTEM TIME (SEC)    =   1.5000    
       TOTAL CPU TIME (SEC) =   7.7000    
       WALLCLOCK TIME (SEC) =          4
