*Heading
** Job name: sq-8mm_sin-per-4_sin-amp-2mm Model name: Model-1
** Generated by: Abaqus/CAE 2021
*Preprint, echo=NO, model=NO, history=NO, contact=NO
**
** PARTS
**
*Part, name=Part-1
*End Part
**
**
** ASSEMBLY
**
*Assembly, name=Assembly
**
*Instance, name=Part-1-1, part=Part-1
*Node
1, -20, 4, 0
2, -19.5833, 3.4824, 0
3, -19.1667, 3, 0
4, -18.75, 2.5858, 0
5, -18.3333, 2.2679, 0
6, -17.9167, 2.0681, 0
7, -17.5, 2, 0
8, -17.0833, 2.0681, 0
9, -16.6667, 2.2679, 0
10, -16.25, 2.5858, 0
11, -15.8333, 3, 0
12, -15.4167, 3.4824, 0
13, -14.5833, 4.5176, 0
14, -14.1667, 5, 0
15, -13.75, 5.4142, 0
16, -13.3333, 5.7321, 0
17, -12.9167, 5.9319, 0
18, -12.5, 6, 0
19, -12.0833, 5.9319, 0
20, -11.6667, 5.7321, 0
** ... 2589 like lines cut
*Element, type=C3D4H
1, 2202, 2184, 943, 2217
2, 2177, 2522, 2151, 2164
3, 2184, 2202, 943, 1479
4, 30, 553, 1916, 558
5, 2585, 1863, 2397, 2393
6, 2585, 2397, 1847, 2393
7, 2585, 1847, 2394, 2393
8, 1820, 1781, 2533, 1787
9, 2048, 1755, 1735, 1816
10, 1772, 2439, 2448, 2438
11, 1939, 2439, 2448, 1772
12, 2067, 2530, 1817, 1819
13, 2360, 2120, 659, 2153
14, 1767, 2419, 2422, 2420
15, 1804, 1763, 2401, 1761
16, 1804, 2408, 2401, 1763
17, 1803, 2592, 1931, 2426
18, 1803, 2409, 2432, 2410
19, 666, 1785, 1774, 661
20, 201, 1842, 424, 202
** ... 9981 like lines cut
*Nset, nset=Set-1, generate
1, 2609, 1
*Elset, elset=Set-1, generate
1, 10001, 1
** Section: Section-1
*Solid Section, elset=Set-1, controls=EC-1, material=Material-1
,
*End Instance
**
*Nset, nset=bc-set-1, instance=Part-1-1
1, 2, 3, 4, 5, 6, 7, 8, 9, 10, 11, 12, 13, 14, 15, 16
17, 18, 19, 20, 21, 22, 23, 24, 25, 26, 27, 28, 29, 30, 31, 32
33, 34, 35, 36, 37, 38, 39, 40, 41, 42, 43, 44, 45, 46, 47, 48
49, 50, 51, 52, 53, 54, 55, 56, 57, 58, 59, 60, 61, 62, 63, 64
65, 66, 67, 68, 69, 70, 71, 72, 73, 74, 75, 76, 77, 78, 79, 80
81, 82, 83, 84, 85, 86, 87, 88, 89, 90, 181, 182, 183, 184, 185, 186
187, 199, 200, 201, 202, 203, 204, 205, 206, 207, 208, 209, 210, 211, 212, 213
214, 215, 216, 217, 218, 219, 220, 221, 222, 223, 224, 225, 226, 227, 228, 229
230, 231, 232, 233, 234, 235, 236, 237, 238, 239, 240, 241, 242, 243, 244, 245
246, 247, 248, 249, 250, 251, 252, 253, 254, 255, 256, 257, 258, 259, 260, 261
262, 263, 264, 265, 266, 267, 268, 269, 270, 271, 272, 273, 274, 275, 276, 277
278, 279, 280, 281, 282, 283, 284, 285, 286, 287, 288, 379, 380, 381, 382, 383
384, 385, 409, 410, 411, 412, 413, 414, 415, 416, 417, 418, 419, 420, 421, 422
423, 424, 425, 426, 427, 428, 429, 430, 431, 432, 433, 434, 435, 436, 437, 438
439, 440, 441, 442, 443, 444, 445, 446, 447, 448, 449, 450, 451, 452, 453, 454
455, 456, 457, 458, 459, 460, 461, 462, 463, 464, 465, 466, 467, 468, 469, 470
471, 472, 473, 474, 475, 476, 477, 478, 479, 480, 481, 482, 483, 484, 485, 486
487, 488, 489, 490, 491, 492, 493, 494, 495, 496, 497, 498, 499, 500, 501, 502
503, 504, 505, 506, 507, 508, 509, 510, 511, 512, 513, 514, 515, 516, 517, 518
519, 520, 521, 522, 523, 524, 525, 526, 527, 528, 529, 530, 531, 532, 533, 534
** ... 23 like lines cut
*Elset, elset=bc-set-1, instance=Part-1-1
4, 13, 19, 20, 44, 48, 54, 58, 64, 65, 68, 81, 82, 84, 89, 90
91, 92, 100, 103, 108, 109, 111, 112, 113, 114, 121, 125, 145, 178, 180, 184
189, 191, 193, 194, 195, 196, 197, 201, 204, 208, 218, 219, 221, 223, 238, 240
246, 250, 260, 261, 265, 268, 271, 276, 283, 289, 290, 292, 295, 297, 301, 314
320, 325, 332, 333, 336, 337, 339, 345, 346, 350, 351, 355, 356, 370, 373, 374
378, 382, 385, 387, 388, 392, 398, 404, 407, 409, 411, 412, 417, 426, 430, 435
436, 440, 442, 443, 446, 448, 449, 450, 451, 454, 455, 456, 458, 459, 464, 465
467, 473, 477, 478, 480, 482, 484, 485, 487, 489, 490, 492, 498, 502, 506, 514
517, 518, 527, 529, 530, 531, 552, 556, 559, 560, 564, 569, 571, 572, 574, 579
581, 582, 584, 588, 589, 591, 593, 595, 600, 601, 607, 610, 613, 615, 620, 625
630, 631, 632, 633, 635, 637, 639, 640, 641, 642, 648, 651, 659, 660, 665, 671
673, 677, 678, 679, 680, 681, 684, 687, 688, 692, 694, 695, 699, 701, 702, 705
706, 707, 709, 710, 713, 715, 716, 717, 718, 723, 724, 725, 726, 727, 728, 729
730, 732, 733, 735, 745, 748, 759, 760, 762, 764, 767, 768, 770, 773, 776, 777
788, 799, 801, 809, 813, 814, 815, 816, 821, 823, 826, 827, 828, 831, 834, 835
837, 838, 842, 846, 852, 854, 857, 863, 866, 872, 874, 884, 885, 891, 892, 895
896, 897, 899, 903, 908, 913, 916, 917, 920, 921, 925, 926, 928, 932, 933, 934
935, 936, 937, 940, 943, 945, 946, 948, 949, 950, 951, 952, 953, 954, 956, 959
960, 962, 963, 964, 965, 966, 967, 969, 970, 975, 976, 977, 978, 981, 982, 985
988, 989, 991, 992, 993, 997, 1003, 1004, 1007, 1008, 1009, 1011, 1014, 1016, 1017, 1018
** ... 142 like lines cut
*Nset, nset=bc-set-2, instance=Part-1-1
91, 92, 93, 94, 95, 96, 97, 98, 99, 100, 101, 102, 103, 104, 105, 106
107, 108, 109, 110, 111, 112, 113, 114, 115, 116, 117, 118, 119, 120, 121, 122
123, 124, 125, 126, 127, 128, 129, 130, 131, 132, 133, 134, 135, 136, 137, 138
139, 140, 141, 142, 143, 144, 145, 146, 147, 148, 149, 150, 151, 152, 153, 154
155, 156, 157, 158, 159, 160, 161, 162, 163, 164, 165, 166, 167, 168, 169, 170
171, 172, 173, 174, 175, 176, 177, 178, 179, 180, 190, 191, 192, 193, 194, 195
196, 289, 290, 291, 292, 293, 294, 295, 296, 297, 298, 299, 300, 301, 302, 303
304, 305, 306, 307, 308, 309, 310, 311, 312, 313, 314, 315, 316, 317, 318, 319
320, 321, 322, 323, 324, 325, 326, 327, 328, 329, 330, 331, 332, 333, 334, 335
336, 337, 338, 339, 340, 341, 342, 343, 344, 345, 346, 347, 348, 349, 350, 351
352, 353, 354, 355, 356, 357, 358, 359, 360, 361, 362, 363, 364, 365, 366, 367
368, 369, 370, 371, 372, 373, 374, 375, 376, 377, 378, 388, 389, 390, 391, 392
393, 394, 859, 860, 861, 862, 863, 864, 865, 866, 867, 868, 869, 870, 871, 872
873, 874, 875, 876, 877, 878, 879, 880, 881, 882, 883, 884, 885, 886, 887, 888
889, 890, 891, 892, 893, 894, 895, 896, 897, 898, 899, 900, 901, 902, 903, 904
905, 906, 907, 908, 909, 910, 911, 912, 913, 914, 915, 916, 917, 918, 919, 920
921, 922, 923, 924, 925, 926, 927, 928, 929, 930, 931, 932, 933, 934, 935, 936
937, 938, 939, 940, 941, 942, 943, 944, 945, 946, 947, 948, 949, 950, 951, 952
953, 954, 955, 956, 957, 958, 959, 960, 961, 962, 963, 964, 965, 966, 967, 968
969, 970, 971, 972, 973, 974, 975, 976, 977, 978, 979, 980, 981, 982, 983, 984
** ... 23 like lines cut
*Elset, elset=bc-set-2, instance=Part-1-1
1, 3, 22, 32, 33, 37, 45, 50, 51, 52, 59, 70, 95, 107, 117, 118
120, 144, 167, 170, 190, 192, 200, 203, 205, 220, 224, 226, 239, 241, 242, 245
253, 257, 270, 280, 288, 296, 302, 303, 305, 310, 311, 317, 319, 324, 326, 327
329, 338, 343, 349, 354, 357, 358, 359, 360, 361, 362, 363, 364, 365, 366, 367
368, 369, 371, 372, 380, 389, 390, 393, 394, 395, 396, 397, 399, 400, 401, 403
405, 406, 410, 414, 415, 416, 418, 423, 425, 429, 432, 433, 434, 439, 445, 452
457, 460, 461, 462, 463, 472, 474, 475, 476, 481, 488, 495, 496, 497, 499, 500
501, 503, 507, 510, 513, 515, 516, 519, 520, 521, 522, 523, 525, 526, 528, 532
533, 535, 536, 537, 540, 541, 543, 544, 545, 550, 551, 553, 557, 558, 562, 563
565, 566, 575, 576, 577, 578, 580, 583, 585, 586, 587, 590, 592, 594, 597, 598
603, 604, 605, 608, 609, 611, 614, 616, 618, 623, 629, 634, 636, 643, 644, 645
646, 647, 649, 650, 652, 662, 666, 667, 668, 670, 683, 686, 696, 708, 711, 712
714, 736, 737, 738, 739, 740, 747, 750, 751, 752, 753, 754, 756, 758, 765, 778
781, 784, 785, 786, 790, 792, 794, 795, 797, 804, 806, 807, 810, 811, 812, 817
819, 820, 822, 836, 843, 847, 849, 850, 862, 864, 865, 867, 868, 870, 871, 873
875, 877, 879, 880, 881, 887, 888, 889, 893, 901, 904, 906, 907, 909, 912, 919
923, 924, 927, 941, 942, 944, 958, 971, 972, 973, 974, 980, 987, 990, 1000, 1006
1015, 1019, 1020, 1021, 1023, 1024, 1026, 1027, 1028, 1031, 1035, 1038, 1039, 1041, 1044, 1045
1050, 1051, 1052, 1053, 1058, 1062, 1063, 1069, 1070, 1071, 1072, 1076, 1077, 1078, 1079, 1080
1082, 1089, 1090, 1096, 1097, 1104, 1108, 1109, 1110, 1111, 1117, 1118, 1121, 1122, 1123, 1124
** ... 142 like lines cut
*End Assembly
**
** ELEMENT CONTROLS
**
*Section Controls, name=EC-1, hourglass=ENHANCED
1., 1., 1.
**
** MATERIALS
**
*Material, name=Material-1
*Hyperelastic, neo hooke
0.001724, 60
** ----------------------------------------------------------------
**
** STEP: Step-1
**
*Step, name=Step-1, nlgeom=YES
*Static
1., 1., 1e-05, 1.
**
** BOUNDARY CONDITIONS
**
** Name: BC-1 Type: Displacement/Rotation
*Boundary
bc-set-1, 1, 1, 3
bc-set-1, 2, 6
** Name: BC-2 Type: Symmetry/Antisymmetry/Encastre
*Boundary
bc-set-2, ENCASTRE
**
** OUTPUT REQUESTS
**
*Restart, write, frequency=0
**
** FIELD OUTPUT: F-Output-1
**
*Output, field, variable=PRESELECT
**
** HISTORY OUTPUT: H-Output-1
**
*Output, history, variable=PRESELECT
*End Step
