1

   Abaqus 2021                                  Date 20-Jul-2023   Time 13:50:21
   For use by UNIVERSITY OF MICHIGAN under license from Dassault Systemes or its subsidiary.



                         The Abaqus Software is a product of:

                           Dassault Systemes SIMULIA Corp.
                           1301 Atwood Avenue, Suite 101W
                              Johnston, RI 02919, USA
 


                   The Abaqus Software is available only under license
                   from Dassault Systemes or its subsidiary and may be
                   used or reproduced only in accordance with the terms
                   of such license.
 
                          On machine ME-ESTRADALAB04 
                          you are authorized to run
                          Abaqus/Standard until 31-Jul-2024

                          Your site id is: 200000000004058 


 
                    For assistance or any other information you may
                    obtain contact information for your local office
                    from the world wide web at:

                      http://www.3ds.com/products/simulia/locations/

 
                * * * * * * * * * * * * * * * * * * * * * * * * * * * * * * 
                *                                                         * 
                *                   *****************                     * 
                *                   *  N O T I C E  *                     * 
                *                   *****************                     * 
                *                                                         * 
                *                                                         * 
                *                       Abaqus 2021                       * 
                *                                                         * 
                *          BUILD ID: 2020_03_06-09.50.37 167380           * 
                *                                                         * 
                *                                                         * 
                *  Please make sure you are using                         * 
                *  release Abaqus 2021 manuals                            * 
                *  plus the notes accompanying this release.              * 
                *                                                         * 
                *                                                         * 
                *                                                         * 
                *                                                         * 
                *                                                         * 
                *   This program may not be used for commercial purposes  * 
                *           without payment of a commercial fee.          * 
                *                                                         * 
                * * * * * * * * * * * * * * * * * * * * * * * * * * * * * * 


 



     PROCESSING PART, INSTANCE, AND ASSEMBLY INFORMATION
   *******************************************************


     END PROCESSING PART, INSTANCE, AND ASSEMBLY INFORMATION
   ***********************************************************




     OPTIONS BEING PROCESSED
   ***************************


  *Heading
  *Node
  *Element, type=C3D4H
  *Nset, nset=ASSEMBLY_PART-1-1_SET-1
  *Elset, elset=ASSEMBLY_PART-1-1_SET-1
  *Nset, nset=ASSEMBLY_BC-SET-1
  *Nset, nset=ASSEMBLY_BC-SET-2
  *Elset, elset=ASSEMBLY_BC-SET-1
  *Elset, elset=ASSEMBLY_BC-SET-2
  *material, name=MATERIAL-1
  *hyperelastic, neohooke
  *solidsection, elset=ASSEMBLY_PART-1-1_SET-1, controls=EC-1, material=MATERIAL-1
  *sectioncontrols, name=EC-1, hourglass=ENHANCED

 ***WARNING: THE PARAMETER HOURGLASS = ENHANCED ON THE SECTION CONTROLS OPTION 
             IS RELEVANT FOR THESE ELEMENTS: C3D8R, CAX4R, CGAX4R, CPEG4R, 
             CPE4R, CPS4R, M3D4R, S4R, SC8R AND THEIR HYBRID, THERMAL AND 
             PRESSURE COUNTERPARTS WHEREVER APPLICABLE. IT IS ALSO RELEVANT FOR 
             ALL TYPES OF MODIFIED TRIANGULAR AND TETRAHEDRAL ELEMENTS. THIS 
             WARNING CAN BE IGNORED IF THE FEATURE IS APPLIED TO THESE ELEMENT 
             TYPES ONLY.
  *solidsection, elset=ASSEMBLY_PART-1-1_SET-1, controls=EC-1, material=MATERIAL-1
  *boundary
  *boundary
  *boundary
  *boundary
  *output, field, variable=PRESELECT
  *output, history, variable=PRESELECT
  *output, field, variable=PRESELECT
  *output, history, variable=PRESELECT
  *output, field, variable=PRESELECT
  *output, history, variable=PRESELECT

 ***NOTE: C3D10HS AND HYBRID TETRAHEDRAL ELEMENTS WILL ENFORCE VOLUMETRIC 
          CONTINUITY ACROSS MATERIAL BOUNDARIES. IN ORDER TO ALLOW 
          DISCONTINUITIES IN THE VOLUMETRIC FIELD USE *TIE.
  *Step, name=Step-1, nlgeom=YES
  *output, field, variable=PRESELECT
  *output, history, variable=PRESELECT
  *Step, name=Step-1, nlgeom=YES
  *Step, name=Step-1, nlgeom=YES
  *static
  *boundary
  *boundary
  *output, field, variable=PRESELECT
  *output, history, variable=PRESELECT
  *nodeprint
  *elprint, position=CENTROIDAL

 ***WARNING: OUTPUT REQUEST DG IS ONLY AVAILABLE FOR *HYPERELASTIC/FOAM AND 
             *USER MATERIAL.
  *nodeprint, nset=ASSEMBLY_BC-SET-1
  *nodeprint, nset=ASSEMBLY_BC-SET-2
  *endstep
  *Step, name=Step-1, nlgeom=YES
  *static
  *boundary
  *boundary
  *endstep

 ***NOTE: Boundary conditions are specified on inactive dof of 679 nodes. The 
          nodes have been identified in node set WarnNodeBCInactiveDof.


                              E L E M E N T,   N O D E,   A N D   S U R F A C E   M A P S


**NOTE: This section may not include complete information about
        members of sets and surfaces. Use *PREPRINT, MODEL=YES 
        in order to get the set and surface members printed    
        under the following sections:                          
            - E L E M E N T   S E T S                          
            - N O D E   S E T S                                
            - S U R F A C E   D E F I N I T I O N S .          


Assembly name: ASSEMBLY
Number of instances: 1

ASSEMBLY LEVEL
  node sets:
    BC-SET-1:
      instance name: PART-1-1
      number of nodes: 679
      nodes: 
        1 2 3 4 5 6 7 8 9 10 11 12 13 14 15 16 17 18 19 20 21 22 23 24
        25 26 27 28 29 30 31 32 33 34 35 36 37 38 39 40 41 42 43 44 45
        46 47 48 49 50 51 52 53 54 55 56 57 58 59 60 61 62 63 64 65 66
        67 68 69 70 71 72 73 74 75 76 77 78 79 80 81 82 83 84 85 86 87
        88 89 90 181 182 183 184 185 186 187 199 200 201 202 203 204 205
        206 207 208 209 210 211 212 213 214 215 216 217 218 219 220 221
        222 223 224 225 226 227 228 229 230 231 232 233 234 235 236 237
        238 239 240 241 242 243 244 245 246 247 248 249 250 251 252 253
        254 255 256 257 258 259 260 261 262 263 264 265 266 267 268 269
        270 271 272 273 274 275 276 277 278 279 280 281 282 283 284 285
        286 287 288 379 380 381 382 383 384 385 409 410 411 412 413 414
        415 416 417 418 419 420 421 422 423 424 425 426 427 428 429 430
        431 432 433 434 435 436 437 438 439 440 441 442 443 444 445 446
        447 448 449 450 451 452 453 454 455 456 457 458 459 460 461 462
        463 464 465 466 467 468 469 470 471 472 473 474 475 476 477 478
        479 480 481 482 483 484 485 486 487 488 489 490 491 492 493 494
        495 496 497 498 499 500 501 502 503 504 505 506 507 508 509 510
        511 512 513 514 515 516 517 518 519 520 521 522 523 524 525 526
        527 528 529 530 531 532 533 534 535 536 537 538 539 540 541 542
        543 544 545 546 547 548 549 550 551 552 553 554 555 556 557 558
        559 560 561 562 563 564 565 566 567 568 569 570 571 572 573 574
        575 576 577 578 579 580 581 582 583 584 585 586 587 588 589 590
        591 592 593 594 595 596 597 598 599 600 601 602 603 604 605 606
        607 608 609 610 611 612 613 614 615 616 617 618 619 620 621 622
        623 624 625 626 627 628 629 630 631 632 633 634 635 636 637 638
        639 640 641 642 643 644 645 646 647 648 649 650 651 652 653 654
        655 656 657 658 659 660 661 662 663 664 665 666 667 668 669 670
        671 672 673 674 675 676 677 678 679 680 681 682 683 684 685 686
        687 688 689 690 691 692 693 694 695 696 697 698 699 700 701 702
        703 704 705 706 707 708 709 710 711 712 713 714 715 716 717 718
        719 720 721 722 723 724 725 726 727 728 729 730 731 732 733 734
        735 736 737 738 739 740 741 742 743 744 745 746 747 748 749 750
        751 752 753 754 755 756 757 758 759 760 761 762 763 764 765 766
        767 768 769 770 771 772 773 774 775 776 777 778 779 780 781 782
        783 784 785 786 787 788 789 790 791 792 793 794 795 796 797 798
        799 800 801 802 803 804 805 806 807 808 809 810 811 812 813 814
        815 816 817 818 819 820 821 822 823 824 825 826 827 828 829 830
        831 832 833 834 835 836 837 838 839 840 841 842 843 844 845 846
        847 848 849 850 851 852 853 854 855 856 857 858 1309 1310 1311
        1312 1313 1314 1315 1316 1317 1318 1319 1320 1321 1322 1323 1324
        1325 1326 1327 1328 1329 1330 1331 1332 1333 1334 1335 1336 1337
        1338 1339 1340 1341 1342 1343

    BC-SET-2:
      instance name: PART-1-1
      number of nodes: 679
      nodes: 
        91 92 93 94 95 96 97 98 99 100 101 102 103 104 105 106 107 108
        109 110 111 112 113 114 115 116 117 118 119 120 121 122 123 124
        125 126 127 128 129 130 131 132 133 134 135 136 137 138 139 140
        141 142 143 144 145 146 147 148 149 150 151 152 153 154 155 156
        157 158 159 160 161 162 163 164 165 166 167 168 169 170 171 172
        173 174 175 176 177 178 179 180 190 191 192 193 194 195 196 289
        290 291 292 293 294 295 296 297 298 299 300 301 302 303 304 305
        306 307 308 309 310 311 312 313 314 315 316 317 318 319 320 321
        322 323 324 325 326 327 328 329 330 331 332 333 334 335 336 337
        338 339 340 341 342 343 344 345 346 347 348 349 350 351 352 353
        354 355 356 357 358 359 360 361 362 363 364 365 366 367 368 369
        370 371 372 373 374 375 376 377 378 388 389 390 391 392 393 394
        859 860 861 862 863 864 865 866 867 868 869 870 871 872 873 874
        875 876 877 878 879 880 881 882 883 884 885 886 887 888 889 890
        891 892 893 894 895 896 897 898 899 900 901 902 903 904 905 906
        907 908 909 910 911 912 913 914 915 916 917 918 919 920 921 922
        923 924 925 926 927 928 929 930 931 932 933 934 935 936 937 938
        939 940 941 942 943 944 945 946 947 948 949 950 951 952 953 954
        955 956 957 958 959 960 961 962 963 964 965 966 967 968 969 970
        971 972 973 974 975 976 977 978 979 980 981 982 983 984 985 986
        987 988 989 990 991 992 993 994 995 996 997 998 999 1000 1001
        1002 1003 1004 1005 1006 1007 1008 1009 1010 1011 1012 1013 1014
        1015 1016 1017 1018 1019 1020 1021 1022 1023 1024 1025 1026 1027
        1028 1029 1030 1031 1032 1033 1034 1035 1036 1037 1038 1039 1040
        1041 1042 1043 1044 1045 1046 1047 1048 1049 1050 1051 1052 1053
        1054 1055 1056 1057 1058 1059 1060 1061 1062 1063 1064 1065 1066
        1067 1068 1069 1070 1071 1072 1073 1074 1075 1076 1077 1078 1079
        1080 1081 1082 1083 1084 1085 1086 1087 1088 1089 1090 1091 1092
        1093 1094 1095 1096 1097 1098 1099 1100 1101 1102 1103 1104 1105
        1106 1107 1108 1109 1110 1111 1112 1113 1114 1115 1116 1117 1118
        1119 1120 1121 1122 1123 1124 1125 1126 1127 1128 1129 1130 1131
        1132 1133 1134 1135 1136 1137 1138 1139 1140 1141 1142 1143 1144
        1145 1146 1147 1148 1149 1150 1151 1152 1153 1154 1155 1156 1157
        1158 1159 1160 1161 1162 1163 1164 1165 1166 1167 1168 1169 1170
        1171 1172 1173 1174 1175 1176 1177 1178 1179 1180 1181 1182 1183
        1184 1185 1186 1187 1188 1189 1190 1191 1192 1193 1194 1195 1196
        1197 1198 1199 1200 1201 1202 1203 1204 1205 1206 1207 1208 1209
        1210 1211 1212 1213 1214 1215 1216 1217 1218 1219 1220 1221 1222
        1223 1224 1225 1226 1227 1228 1229 1230 1231 1232 1233 1234 1235
        1236 1237 1238 1239 1240 1241 1242 1243 1244 1245 1246 1247 1248
        1249 1250 1251 1252 1253 1254 1255 1256 1257 1258 1259 1260 1261
        1262 1263 1264 1265 1266 1267 1268 1269 1270 1271 1272 1273 1274
        1275 1276 1277 1278 1279 1280 1281 1282 1283 1284 1285 1286 1287
        1288 1289 1290 1291 1292 1293 1294 1295 1296 1297 1298 1299 1300
        1301 1302 1303 1304 1305 1306 1307 1308 1354 1355 1356 1357 1358
        1359 1360 1361 1362 1363 1364 1365 1366 1367 1368 1369 1370 1371
        1372 1373 1374 1375 1376 1377 1378 1379 1380 1381 1382 1383 1384
        1385 1386 1387 1388

  element sets:
    BC-SET-1:
      instance name: PART-1-1
      number of elements: 2582
      elements: 
        4 13 19 20 44 48 54 58 64 65 68 81 82 84 89 90 91 92 100 103 108
        109 111 112 113 114 121 125 145 178 180 184 189 191 193 194 195
        196 197 201 204 208 218 219 221 223 238 240 246 250 260 261 265
        268 271 276 283 289 290 292 295 297 301 314 320 325 332 333 336
        337 339 345 346 350 351 355 356 370 373 374 378 382 385 387 388
        392 398 404 407 409 411 412 417 426 430 435 436 440 442 443 446
        448 449 450 451 454 455 456 458 459 464 465 467 473 477 478 480
        482 484 485 487 489 490 492 498 502 506 514 517 518 527 529 530
        531 552 556 559 560 564 569 571 572 574 579 581 582 584 588 589
        591 593 595 600 601 607 610 613 615 620 625 630 631 632 633 635
        637 639 640 641 642 648 651 659 660 665 671 673 677 678 679 680
        681 684 687 688 692 694 695 699 701 702 705 706 707 709 710 713
        715 716 717 718 723 724 725 726 727 728 729 730 732 733 735 745
        748 759 760 762 764 767 768 770 773 776 777 788 799 801 809 813
        814 815 816 821 823 826 827 828 831 834 835 837 838 842 846 852
        854 857 863 866 872 874 884 885 891 892 895 896 897 899 903 908
        913 916 917 920 921 925 926 928 932 933 934 935 936 937 940 943
        945 946 948 949 950 951 952 953 954 956 959 960 962 963 964 965
        966 967 969 970 975 976 977 978 981 982 985 988 989 991 992 993
        997 1003 1004 1007 1008 1009 1011 1014 1016 1017 1018 1022 1034
        1036 1037 1046 1056 1059 1060 1066 1067 1068 1074 1075 1083 1084
        1088 1091 1092 1093 1094 1095 1098 1100 1101 1102 1105 1106 1107
        1113 1115 1132 1135 1137 1139 1140 1141 1144 1145 1146 1147 1149
        1152 1153 1154 1156 1157 1158 1159 1160 1161 1163 1164 1165 1167
        1175 1176 1182 1183 1185 1186 1191 1193 1199 1201 1202 1204 1209
        1211 1215 1216 1218 1222 1223 1224 1226 1227 1229 1231 1234 1237
        1238 1240 1251 1253 1260 1261 1263 1269 1271 1273 1274 1275 1277
        1278 1280 1281 1283 1284 1297 1298 1299 1302 1303 1305 1307 1309
        1312 1313 1320 1321 1322 1329 1330 1331 1332 1335 1336 1337 1340
        1341 1344 1346 1350 1351 1353 1356 1357 1359 1360 1361 1367 1369
        1370 1373 1374 1379 1382 1384 1386 1390 1392 1397 1398 1400 1401
        1402 1406 1414 1418 1422 1424 1433 1438 1439 1444 1448 1458 1462
        1463 1466 1468 1477 1478 1480 1481 1483 1491 1493 1494 1497 1499
        1500 1503 1511 1513 1520 1522 1523 1524 1531 1540 1541 1542 1545
        1548 1552 1557 1559 1565 1570 1571 1574 1577 1581 1582 1583 1584
        1585 1587 1592 1597 1598 1599 1600 1604 1605 1606 1607 1610 1611
        1612 1613 1615 1618 1620 1622 1625 1626 1629 1630 1632 1637 1639
        1641 1642 1646 1647 1648 1655 1656 1657 1658 1659 1663 1667 1670
        1681 1683 1691 1694 1698 1700 1701 1702 1703 1716 1718 1719 1725
        1726 1727 1728 1729 1730 1732 1733 1737 1740 1742 1748 1749 1750
        1751 1752 1759 1760 1762 1763 1764 1767 1769 1771 1775 1783 1789
        1790 1791 1793 1794 1795 1797 1798 1799 1804 1806 1808 1810 1811
        1812 1820 1822 1823 1825 1826 1829 1839 1844 1845 1846 1848 1851
        1852 1853 1857 1858 1859 1861 1863 1864 1865 1866 1868 1869 1870
        1873 1882 1884 1887 1888 1892 1893 1896 1903 1907 1910 1911 1917
        1918 1919 1921 1922 1930 1931 1933 1934 1940 1942 1944 1945 1947
        1949 1950 1952 1953 1954 1957 1964 1965 1973 1974 1975 1977 1981
        1985 1988 1990 1995 1998 2000 2002 2003 2008 2032 2039 2048 2060
        2062 2080 2081 2083 2093 2103 2104 2106 2108 2110 2111 2112 2119
        2120 2124 2125 2128 2130 2137 2138 2140 2141 2145 2146 2147 2152
        2155 2159 2160 2161 2162 2165 2166 2167 2170 2174 2182 2184 2190
        2202 2203 2206 2209 2211 2212 2218 2220 2221 2225 2228 2230 2231
        2234 2235 2237 2238 2242 2243 2244 2246 2247 2248 2249 2251 2253
        2254 2258 2266 2275 2276 2277 2278 2280 2282 2283 2285 2286 2287
        2288 2289 2290 2293 2294 2295 2298 2301 2302 2308 2309 2314 2317
        2331 2338 2339 2343 2344 2347 2348 2349 2356 2357 2358 2362 2365
        2367 2368 2374 2379 2380 2382 2386 2387 2394 2398 2401 2414 2415
        2416 2428 2435 2436 2437 2439 2440 2444 2447 2449 2454 2456 2457
        2458 2459 2462 2463 2464 2465 2466 2468 2470 2471 2472 2473 2477
        2478 2495 2497 2498 2503 2515 2520 2523 2524 2528 2529 2533 2541
        2547 2551 2555 2557 2560 2561 2563 2569 2573 2576 2579 2583 2585
        2591 2596 2599 2603 2611 2612 2615 2616 2619 2623 2624 2626 2635
        2636 2644 2645 2651 2652 2656 2660 2661 2663 2664 2665 2666 2670
        2671 2672 2673 2682 2684 2686 2687 2693 2697 2698 2699 2704 2707
        2711 2715 2719 2720 2725 2728 2730 2731 2737 2740 2744 2746 2748
        2752 2753 2756 2758 2766 2781 2783 2786 2790 2794 2795 2798 2799
        2805 2807 2820 2823 2828 2830 2832 2833 2834 2836 2838 2849 2859
        2861 2865 2867 2879 2888 2889 2893 2895 2896 2897 2901 2902 2907
        2916 2917 2918 2921 2931 2933 2936 2940 2941 2944 2953 2955 2957
        2958 2966 2967 2972 2973 2974 2979 2981 2984 2985 2994 2995 2997
        2998 3002 3003 3004 3010 3013 3014 3015 3017 3019 3021 3025 3038
        3052 3054 3056 3057 3058 3060 3061 3062 3063 3064 3065 3072 3073
        3074 3076 3077 3078 3079 3080 3082 3091 3095 3096 3107 3120 3121
        3122 3125 3126 3135 3141 3142 3143 3144 3148 3150 3152 3153 3154
        3155 3158 3159 3161 3162 3164 3168 3172 3173 3176 3177 3178 3179
        3184 3187 3188 3189 3197 3214 3216 3217 3218 3220 3228 3231 3234
        3237 3240 3241 3245 3254 3259 3264 3268 3269 3271 3272 3279 3280
        3287 3295 3300 3302 3309 3316 3318 3320 3329 3330 3331 3346 3348
        3361 3363 3364 3365 3366 3369 3374 3377 3385 3387 3388 3390 3391
        3393 3394 3401 3403 3409 3411 3419 3420 3432 3437 3443 3444 3446
        3448 3449 3454 3456 3457 3467 3470 3472 3474 3475 3478 3480 3481
        3482 3494 3495 3498 3499 3504 3506 3508 3509 3510 3511 3512 3513
        3514 3515 3519 3521 3526 3527 3528 3529 3531 3532 3533 3537 3539
        3544 3551 3571 3576 3580 3583 3586 3587 3588 3595 3598 3599 3607
        3608 3629 3630 3632 3633 3655 3667 3668 3669 3671 3673 3677 3685
        3686 3687 3688 3690 3691 3696 3698 3699 3700 3707 3712 3713 3715
        3719 3726 3742 3747 3751 3754 3759 3763 3767 3768 3779 3780 3781
        3786 3790 3799 3807 3816 3818 3822 3829 3843 3844 3845 3846 3859
        3870 3874 3878 3880 3884 3894 3895 3897 3900 3901 3903 3904 3905
        3906 3910 3916 3920 3931 3933 3934 3935 3936 3937 3939 3946 3947
        3948 3950 3951 3966 3967 3972 3973 3976 3993 3996 3999 4000 4002
        4015 4017 4022 4023 4024 4027 4028 4029 4030 4031 4044 4050 4051
        4052 4053 4054 4057 4058 4065 4066 4067 4068 4069 4072 4074 4075
        4077 4078 4081 4089 4095 4108 4109 4111 4114 4117 4121 4122 4123
        4127 4130 4134 4139 4155 4163 4164 4165 4169 4170 4174 4179 4185
        4193 4196 4197 4200 4208 4211 4212 4218 4226 4228 4231 4232 4234
        4241 4242 4246 4255 4256 4260 4261 4262 4263 4264 4268 4272 4273
        4275 4276 4277 4282 4291 4311 4314 4315 4318 4319 4323 4333 4341
        4352 4353 4356 4361 4364 4365 4371 4373 4375 4376 4377 4380 4381
        4382 4383 4388 4389 4399 4401 4402 4403 4404 4406 4407 4408 4411
        4413 4414 4415 4416 4417 4418 4421 4422 4425 4428 4436 4439 4440
        4442 4443 4444 4447 4450 4452 4453 4458 4465 4466 4467 4469 4470
        4471 4475 4487 4489 4498 4505 4506 4507 4508 4510 4513 4514 4515
        4516 4517 4518 4523 4524 4526 4532 4533 4534 4535 4536 4542 4546
        4549 4550 4551 4552 4553 4556 4564 4565 4567 4568 4580 4586 4587
        4613 4614 4615 4626 4628 4633 4636 4637 4641 4644 4645 4649 4657
        4662 4667 4671 4676 4683 4688 4689 4692 4700 4704 4706 4709 4711
        4716 4718 4719 4722 4724 4725 4728 4736 4739 4742 4744 4750 4751
        4752 4753 4755 4756 4758 4759 4764 4775 4780 4787 4791 4792 4795
        4796 4799 4802 4812 4817 4819 4822 4829 4831 4834 4836 4839 4846
        4849 4852 4857 4858 4860 4870 4873 4874 4877 4890 4895 4905 4915
        4924 4925 4926 4928 4929 4930 4931 4932 4933 4939 4942 4943 4951
        4953 4960 4969 4971 4974 4975 4976 4977 4978 4981 4982 4983 4984
        4986 4987 4988 4990 4995 4999 5001 5002 5004 5007 5008 5010 5012
        5015 5016 5018 5021 5024 5030 5057 5064 5071 5072 5075 5076 5077
        5107 5108 5109 5111 5115 5116 5118 5119 5121 5124 5131 5151 5152
        5156 5157 5158 5159 5160 5170 5174 5188 5190 5192 5195 5197 5219
        5229 5234 5246 5249 5251 5255 5256 5257 5261 5262 5263 5267 5272
        5288 5291 5292 5302 5319 5321 5322 5325 5328 5330 5339 5340 5341
        5349 5356 5358 5365 5370 5371 5372 5375 5376 5378 5382 5409 5410
        5413 5417 5420 5423 5431 5432 5449 5450 5452 5455 5459 5460 5462
        5463 5465 5466 5467 5468 5469 5472 5478 5481 5482 5483 5485 5498
        5500 5501 5503 5515 5518 5522 5524 5526 5527 5528 5530 5531 5534
        5536 5539 5540 5541 5542 5543 5546 5547 5548 5555 5563 5564 5565
        5566 5567 5570 5571 5572 5573 5576 5589 5590 5591 5594 5596 5599
        5600 5615 5616 5619 5620 5621 5628 5630 5632 5634 5639 5641 5642
        5643 5644 5656 5666 5668 5672 5683 5687 5689 5693 5694 5695 5696
        5700 5701 5702 5704 5705 5709 5712 5714 5725 5733 5734 5770 5771
        5778 5779 5782 5797 5803 5804 5805 5806 5812 5813 5822 5839 5840
        5841 5842 5849 5853 5856 5861 5865 5866 5868 5871 5873 5874 5875
        5876 5877 5880 5884 5885 5899 5904 5906 5909 5918 5921 5922 5924
        5925 5926 5927 5928 5929 5930 5931 5934 5936 5937 5938 5941 5945
        5947 5951 5952 5953 5959 5966 5974 5991 6005 6006 6007 6008 6009
        6013 6014 6017 6018 6019 6026 6037 6040 6042 6043 6045 6050 6055
        6059 6074 6079 6080 6081 6083 6088 6099 6112 6113 6114 6115 6117
        6118 6134 6135 6155 6156 6159 6160 6161 6162 6164 6166 6168 6169
        6179 6185 6186 6192 6193 6194 6195 6207 6219 6220 6221 6222 6224
        6235 6256 6260 6264 6265 6268 6269 6270 6277 6279 6282 6283 6284
        6296 6297 6298 6299 6300 6301 6302 6309 6310 6313 6320 6322 6327
        6331 6334 6336 6341 6351 6354 6366 6368 6370 6371 6376 6383 6389
        6391 6395 6396 6397 6399 6402 6411 6417 6425 6426 6435 6436 6437
        6450 6454 6455 6456 6472 6490 6492 6495 6498 6499 6500 6502 6505
        6506 6507 6508 6509 6510 6513 6514 6517 6528 6529 6531 6532 6553
        6554 6566 6567 6580 6585 6588 6592 6594 6597 6598 6599 6605 6606
        6609 6610 6611 6616 6617 6618 6620 6621 6622 6628 6630 6638 6651
        6658 6659 6660 6663 6664 6672 6681 6688 6693 6694 6699 6701 6713
        6714 6717 6718 6723 6724 6731 6732 6734 6736 6737 6738 6739 6740
        6741 6743 6750 6768 6771 6783 6784 6786 6787 6789 6799 6800 6801
        6805 6817 6820 6822 6841 6850 6869 6879 6884 6885 6888 6899 6900
        6911 6914 6918 6932 6957 6965 6966 6983 7019 7022 7027 7028 7030
        7032 7034 7039 7041 7067 7068 7069 7073 7080 7101 7107 7108 7111
        7117 7133 7134 7135 7136 7137 7158 7177 7198 7201 7205 7217 7220
        7224 7227 7235 7236 7238 7239 7240 7243 7249 7252 7253 7254 7256
        7257 7258 7264 7265 7278 7279 7288 7293 7315 7318 7328 7341 7366
        7367 7368 7385 7391 7392 7393 7400 7401 7402 7405 7412 7414 7415
        7422 7441 7442 7443 7450 7459 7467 7469 7470 7471 7472 7475 7476
        7486 7499 7501 7505 7519 7520 7521 7523 7524 7529 7534 7535 7537
        7549 7558 7563 7572 7576 7578 7585 7593 7597 7604 7606 7619 7631
        7636 7637 7653 7656 7668 7669 7684 7686 7695 7699 7700 7702 7705
        7706 7713 7714 7715 7716 7718 7719 7721 7726 7727 7729 7730 7738
        7739 7745 7746 7747 7749 7751 7753 7754 7759 7760 7763 7770 7772
        7773 7775 7776 7779 7794 7814 7816 7836 7839 7840 7841 7842 7843
        7851 7853 7857 7858 7868 7870 7887 7888 7892 7893 7904 7905 7906
        7916 7920 7930 7942 7944 7952 7959 7960 7964 7965 7984 7991 7993
        7994 7998 8005 8006 8019 8020 8029 8041 8045 8046 8050 8054 8071
        8072 8073 8080 8084 8085 8091 8094 8103 8111 8115 8126 8140 8146
        8148 8156 8178 8179 8180 8184 8190 8199 8201 8203 8207 8210 8220
        8224 8233 8237 8238 8250 8253 8256 8269 8282 8283 8291 8292 8300
        8301 8314 8317 8323 8330 8331 8335 8354 8361 8362 8365 8373 8377
        8382 8402 8405 8410 8411 8412 8429 8430 8431 8432 8434 8439 8446
        8448 8449 8450 8454 8455 8456 8460 8461 8463 8464 8469 8477 8478
        8479 8480 8481 8482 8483 8485 8486 8487 8492 8494 8501 8512 8513
        8514 8517 8520 8524 8526 8534 8539 8544 8552 8570 8571 8577 8583
        8585 8587 8598 8610 8617 8623 8624 8626 8645 8652 8656 8657 8659
        8660 8663 8664 8667 8675 8679 8682 8704 8705 8707 8709 8724 8726
        8727 8728 8738 8739 8763 8781 8784 8785 8791 8793 8794 8809 8810
        8813 8814 8815 8816 8818 8827 8828 8830 8832 8840 8887 8888 8891
        8902 8903 8904 8905 8918 8919 8922 8941 8942 8943 8944 8945 8948
        8949 8950 8951 8954 8955 8958 8959 8962 8963 8966 8973 8975 8976
        8977 8984 9000 9002 9009 9010 9018 9024 9026 9036 9040 9047 9053
        9064 9066 9070 9071 9082 9083 9085 9086 9104 9105 9111 9118 9119
        9128 9133 9135 9139 9141 9142 9155 9164 9165 9167 9171 9178 9179
        9180 9181 9189 9192 9206 9207 9210 9211 9212 9214 9226 9231 9235
        9238 9239 9247 9259 9263 9265 9266 9276 9287 9296 9297 9300 9320
        9321 9325 9327 9334 9344 9354 9361 9362 9364 9372 9373 9374 9376
        9377 9388 9398 9402 9403 9404 9405 9406 9428 9429 9431 9432 9433
        9448 9451 9456 9459 9460 9461 9462 9463 9466 9467 9478 9479 9487
        9488 9491 9492 9493 9496 9499 9500 9515 9528 9554 9556 9577 9593
        9594 9604 9605 9607 9608 9619 9620 9623 9631 9633 9634 9635 9639
        9643 9644 9648 9674 9676 9686 9687 9689 9694 9699 9700 9701 9705
        9706 9713 9716 9736 9746 9747 9748 9750 9759 9760 9761 9767 9770
        9771 9772 9773 9775 9776 9779 9790 9794 9813 9821 9844 9846 9847
        9848 9849 9852 9859 9861 9862 9866 9883 9887 9888 9897 9898 9899
        9900 9907 9909 9911 9921 9951 9955 9956 9957 9969 9973

    BC-SET-2:
      instance name: PART-1-1
      number of elements: 2584
      elements: 
        1 3 22 32 33 37 45 50 51 52 59 70 95 107 117 118 120 144 167 170
        190 192 200 203 205 220 224 226 239 241 242 245 253 257 270 280
        288 296 302 303 305 310 311 317 319 324 326 327 329 338 343 349
        354 357 358 359 360 361 362 363 364 365 366 367 368 369 371 372
        380 389 390 393 394 395 396 397 399 400 401 403 405 406 410 414
        415 416 418 423 425 429 432 433 434 439 445 452 457 460 461 462
        463 472 474 475 476 481 488 495 496 497 499 500 501 503 507 510
        513 515 516 519 520 521 522 523 525 526 528 532 533 535 536 537
        540 541 543 544 545 550 551 553 557 558 562 563 565 566 575 576
        577 578 580 583 585 586 587 590 592 594 597 598 603 604 605 608
        609 611 614 616 618 623 629 634 636 643 644 645 646 647 649 650
        652 662 666 667 668 670 683 686 696 708 711 712 714 736 737 738
        739 740 747 750 751 752 753 754 756 758 765 778 781 784 785 786
        790 792 794 795 797 804 806 807 810 811 812 817 819 820 822 836
        843 847 849 850 862 864 865 867 868 870 871 873 875 877 879 880
        881 887 888 889 893 901 904 906 907 909 912 919 923 924 927 941
        942 944 958 971 972 973 974 980 987 990 1000 1006 1015 1019 1020
        1021 1023 1024 1026 1027 1028 1031 1035 1038 1039 1041 1044 1045
        1050 1051 1052 1053 1058 1062 1063 1069 1070 1071 1072 1076 1077
        1078 1079 1080 1082 1089 1090 1096 1097 1104 1108 1109 1110 1111
        1117 1118 1121 1122 1123 1124 1125 1126 1127 1129 1151 1155 1168
        1169 1171 1174 1177 1178 1179 1184 1189 1190 1194 1197 1200 1203
        1205 1206 1210 1212 1213 1219 1220 1221 1228 1230 1241 1243 1246
        1247 1248 1249 1252 1254 1255 1256 1257 1258 1259 1264 1267 1268
        1272 1287 1289 1290 1295 1296 1300 1301 1308 1315 1325 1327 1338
        1345 1347 1358 1362 1364 1365 1368 1376 1381 1383 1385 1387 1389
        1393 1394 1395 1396 1399 1404 1405 1408 1409 1410 1412 1415 1417
        1420 1421 1423 1425 1426 1427 1428 1429 1430 1431 1432 1434 1440
        1441 1446 1447 1449 1450 1451 1452 1453 1457 1460 1461 1464 1467
        1474 1475 1476 1479 1482 1484 1485 1487 1489 1490 1496 1498 1501
        1507 1508 1509 1515 1521 1526 1527 1528 1529 1530 1533 1534 1536
        1537 1543 1549 1556 1558 1561 1564 1566 1567 1572 1590 1593 1594
        1595 1596 1614 1616 1619 1623 1624 1627 1628 1631 1633 1634 1635
        1636 1638 1640 1644 1645 1650 1652 1654 1660 1661 1662 1665 1666
        1675 1678 1679 1680 1684 1687 1689 1693 1695 1696 1697 1704 1705
        1707 1711 1717 1720 1721 1722 1731 1734 1739 1741 1743 1753 1754
        1755 1756 1768 1774 1777 1778 1779 1780 1784 1785 1787 1788 1792
        1796 1800 1805 1814 1816 1817 1821 1824 1831 1833 1834 1836 1837
        1838 1840 1862 1872 1879 1891 1894 1895 1905 1909 1916 1923 1926
        1927 1929 1936 1946 1948 1951 1960 1961 1962 1963 1966 1967 1972
        1979 1982 1984 1987 1989 1991 1993 1994 1997 2001 2006 2013 2014
        2017 2019 2020 2024 2025 2028 2029 2031 2033 2035 2042 2043 2046
        2047 2050 2051 2052 2054 2058 2061 2064 2065 2066 2070 2071 2073
        2074 2076 2077 2079 2082 2084 2085 2087 2088 2089 2090 2091 2092
        2094 2095 2096 2097 2098 2102 2114 2123 2131 2133 2134 2135 2148
        2150 2151 2168 2171 2172 2175 2176 2177 2179 2181 2186 2187 2188
        2189 2195 2196 2197 2198 2199 2200 2201 2210 2214 2241 2256 2257
        2267 2269 2272 2273 2274 2279 2284 2291 2299 2307 2316 2318 2322
        2324 2325 2326 2332 2333 2334 2340 2350 2353 2355 2369 2372 2375
        2376 2378 2381 2383 2388 2390 2391 2395 2397 2404 2406 2408 2409
        2410 2411 2412 2417 2418 2420 2421 2429 2441 2442 2443 2445 2450
        2453 2460 2469 2475 2479 2480 2481 2483 2486 2501 2502 2504 2505
        2506 2510 2511 2512 2513 2516 2517 2518 2521 2522 2530 2535 2536
        2538 2540 2542 2544 2545 2546 2550 2552 2554 2558 2559 2562 2565
        2567 2574 2575 2578 2580 2588 2589 2597 2602 2617 2618 2620 2628
        2638 2639 2641 2643 2646 2648 2650 2653 2662 2674 2675 2676 2677
        2678 2679 2680 2681 2685 2690 2700 2702 2703 2705 2708 2709 2718
        2721 2734 2741 2743 2745 2749 2762 2763 2765 2767 2769 2770 2771
        2775 2776 2778 2779 2784 2785 2787 2788 2791 2803 2804 2808 2810
        2821 2822 2825 2827 2839 2840 2846 2854 2855 2864 2866 2870 2874
        2880 2884 2885 2886 2887 2898 2903 2904 2905 2908 2911 2913 2914
        2920 2922 2923 2924 2925 2927 2935 2937 2942 2945 2947 2948 2951
        2952 2962 2980 2982 2983 3000 3006 3007 3008 3009 3011 3012 3016
        3020 3022 3023 3024 3026 3027 3028 3029 3031 3035 3042 3045 3049
        3053 3066 3069 3070 3084 3087 3088 3092 3098 3100 3102 3103 3109
        3110 3113 3115 3118 3119 3130 3132 3136 3138 3151 3156 3157 3160
        3166 3167 3181 3182 3185 3186 3190 3192 3198 3199 3200 3201 3202
        3205 3206 3207 3209 3210 3213 3221 3222 3223 3224 3226 3227 3235
        3239 3242 3244 3246 3247 3249 3250 3251 3257 3260 3261 3263 3265
        3266 3267 3274 3278 3281 3282 3284 3285 3286 3289 3290 3291 3292
        3298 3299 3301 3303 3306 3310 3312 3313 3315 3317 3323 3324 3325
        3334 3336 3337 3339 3342 3343 3344 3345 3347 3350 3352 3354 3355
        3358 3359 3360 3370 3373 3378 3380 3383 3386 3392 3395 3396 3397
        3398 3399 3400 3402 3404 3405 3407 3410 3415 3416 3417 3418 3421
        3422 3423 3426 3427 3428 3429 3430 3438 3442 3445 3451 3452 3462
        3471 3486 3487 3488 3491 3493 3500 3505 3516 3520 3522 3525 3535
        3536 3542 3546 3547 3549 3550 3552 3553 3554 3555 3556 3561 3562
        3563 3564 3565 3570 3579 3581 3582 3584 3589 3591 3592 3593 3596
        3600 3601 3602 3603 3609 3610 3613 3614 3618 3619 3621 3624 3626
        3627 3631 3640 3644 3645 3646 3652 3679 3703 3705 3709 3710 3711
        3714 3716 3717 3718 3721 3722 3723 3728 3729 3732 3740 3741 3743
        3749 3750 3752 3760 3769 3772 3775 3776 3777 3782 3783 3785 3787
        3789 3795 3797 3798 3802 3806 3809 3820 3835 3838 3839 3847 3848
        3849 3855 3860 3862 3863 3865 3866 3867 3869 3872 3876 3877 3879
        3881 3882 3883 3886 3887 3889 3896 3898 3899 3907 3917 3924 3926
        3927 3942 3944 3949 3953 3954 3955 3959 3968 3970 3978 3979 3981
        3984 3986 3987 3988 3989 3990 3995 3997 4003 4004 4005 4006 4007
        4008 4012 4016 4018 4021 4036 4037 4040 4041 4046 4056 4059 4070
        4073 4079 4083 4088 4090 4093 4101 4105 4107 4112 4116 4125 4147
        4152 4153 4166 4168 4172 4177 4180 4181 4183 4186 4191 4201 4202
        4204 4205 4206 4209 4213 4215 4216 4222 4224 4225 4227 4230 4235
        4236 4237 4240 4245 4249 4252 4254 4257 4258 4259 4265 4266 4271
        4284 4285 4286 4288 4290 4293 4294 4296 4298 4303 4305 4308 4312
        4313 4316 4321 4325 4330 4334 4335 4336 4339 4340 4342 4344 4363
        4370 4372 4378 4386 4390 4391 4392 4393 4394 4395 4398 4423 4434
        4435 4448 4449 4460 4468 4477 4479 4481 4488 4491 4493 4495 4496
        4500 4501 4503 4512 4519 4520 4521 4531 4538 4539 4540 4545 4547
        4555 4557 4560 4561 4563 4570 4573 4575 4579 4581 4582 4583 4584
        4585 4589 4595 4597 4601 4602 4603 4604 4606 4611 4612 4620 4622
        4638 4642 4646 4650 4652 4653 4665 4670 4672 4673 4674 4675 4677
        4678 4679 4680 4682 4685 4686 4687 4699 4703 4708 4715 4726 4730
        4743 4748 4754 4762 4763 4767 4769 4774 4778 4785 4788 4789 4790
        4793 4797 4801 4805 4810 4814 4816 4818 4824 4838 4840 4841 4844
        4851 4853 4854 4855 4859 4864 4865 4869 4880 4881 4883 4884 4887
        4892 4896 4899 4900 4901 4909 4911 4912 4913 4914 4916 4917 4918
        4934 4940 4945 4946 4948 4950 4952 4961 4962 4963 4964 4967 4968
        4970 4972 4989 4991 4992 5000 5003 5005 5006 5020 5022 5026 5029
        5031 5033 5036 5037 5038 5042 5045 5046 5049 5050 5051 5059 5060
        5061 5062 5082 5084 5085 5092 5095 5100 5101 5102 5103 5104 5105
        5110 5112 5114 5117 5122 5123 5130 5133 5135 5137 5139 5142 5143
        5146 5149 5150 5162 5171 5175 5176 5183 5189 5196 5198 5201 5202
        5204 5206 5214 5215 5217 5223 5224 5230 5232 5233 5236 5237 5239
        5240 5241 5247 5250 5253 5268 5269 5271 5276 5290 5295 5304 5307
        5310 5312 5315 5323 5332 5333 5334 5335 5344 5347 5348 5352 5353
        5354 5360 5364 5367 5368 5369 5384 5386 5388 5392 5396 5402 5404
        5414 5415 5416 5418 5419 5426 5428 5430 5435 5437 5438 5439 5442
        5443 5451 5456 5471 5473 5474 5475 5476 5477 5492 5496 5502 5507
        5508 5509 5517 5521 5523 5544 5545 5550 5559 5575 5581 5582 5586
        5587 5595 5601 5602 5603 5607 5613 5617 5626 5650 5651 5652 5667
        5670 5671 5678 5679 5682 5684 5686 5691 5692 5703 5708 5710 5711
        5713 5717 5718 5729 5732 5736 5738 5739 5740 5741 5743 5744 5745
        5786 5789 5790 5794 5795 5800 5809 5811 5814 5819 5824 5829 5830
        5833 5834 5843 5846 5860 5862 5863 5864 5892 5907 5908 5910 5912
        5913 5915 5916 5920 5943 5944 5946 5950 5954 5955 5957 5961 5962
        5967 5968 5970 5972 5978 5980 5983 5986 5987 5988 5992 5998 6010
        6011 6025 6030 6033 6034 6035 6041 6052 6053 6056 6057 6058 6068
        6078 6082 6084 6085 6086 6087 6091 6096 6097 6098 6102 6103 6106
        6108 6110 6116 6120 6122 6123 6125 6126 6127 6129 6130 6131 6132
        6133 6136 6137 6138 6139 6142 6143 6144 6145 6148 6151 6171 6173
        6174 6175 6177 6180 6190 6197 6198 6200 6201 6202 6208 6225 6233
        6243 6244 6246 6247 6248 6250 6258 6261 6263 6266 6272 6273 6274
        6275 6276 6291 6292 6293 6294 6295 6306 6307 6308 6316 6319 6325
        6342 6348 6355 6365 6379 6380 6381 6386 6387 6390 6392 6403 6428
        6431 6440 6443 6453 6458 6461 6479 6481 6482 6483 6486 6501 6518
        6524 6525 6526 6534 6544 6545 6546 6548 6551 6555 6558 6559 6574
        6575 6576 6578 6593 6595 6596 6600 6601 6603 6604 6619 6623 6624
        6625 6627 6629 6631 6633 6641 6642 6653 6668 6671 6676 6677 6679
        6680 6682 6691 6692 6698 6715 6719 6725 6728 6735 6763 6765 6766
        6767 6774 6790 6791 6792 6793 6794 6803 6807 6816 6825 6829 6830
        6832 6845 6846 6847 6858 6860 6865 6867 6868 6873 6874 6877 6887
        6890 6905 6919 6923 6924 6933 6934 6938 6939 6940 6945 6946 6947
        6948 6952 6976 6984 6995 6997 6998 6999 7000 7005 7011 7012 7013
        7014 7015 7043 7044 7047 7048 7049 7052 7053 7055 7060 7061 7064
        7072 7074 7075 7077 7079 7085 7094 7095 7100 7104 7106 7118 7119
        7120 7126 7130 7154 7162 7163 7165 7166 7181 7185 7199 7204 7216
        7226 7229 7230 7231 7232 7233 7242 7259 7263 7267 7274 7275 7276
        7280 7281 7290 7291 7294 7296 7297 7316 7317 7319 7321 7323 7324
        7332 7335 7340 7343 7344 7345 7346 7350 7351 7353 7354 7363 7364
        7369 7370 7376 7377 7382 7399 7404 7408 7410 7417 7420 7425 7438
        7439 7440 7448 7460 7461 7462 7463 7464 7468 7488 7491 7493 7495
        7504 7506 7507 7510 7511 7512 7513 7514 7515 7522 7528 7530 7531
        7533 7545 7548 7561 7562 7564 7581 7586 7588 7590 7592 7598 7599
        7607 7617 7621 7622 7623 7624 7630 7632 7640 7642 7645 7646 7655
        7660 7685 7688 7689 7690 7691 7696 7701 7704 7725 7752 7781 7784
        7798 7799 7800 7801 7802 7819 7820 7821 7828 7831 7832 7837 7844
        7845 7847 7848 7854 7865 7877 7890 7907 7917 7931 7932 7935 7939
        7941 7943 7946 7956 7970 7976 7980 7982 7983 7985 7986 7988 7989
        7990 7992 8004 8008 8009 8011 8018 8021 8022 8025 8027 8030 8031
        8032 8033 8040 8043 8047 8048 8049 8081 8093 8104 8106 8107 8108
        8109 8110 8118 8121 8124 8127 8132 8133 8134 8137 8141 8149 8150
        8154 8155 8158 8168 8171 8172 8173 8174 8175 8191 8202 8204 8209
        8211 8214 8219 8225 8226 8227 8230 8234 8235 8244 8247 8258 8259
        8260 8262 8265 8273 8275 8276 8277 8290 8293 8294 8310 8313 8316
        8318 8325 8326 8341 8349 8352 8355 8356 8364 8374 8376 8380 8383
        8386 8390 8391 8414 8415 8416 8417 8418 8419 8437 8443 8444 8451
        8452 8453 8468 8470 8476 8484 8493 8500 8502 8503 8506 8507 8522
        8530 8533 8536 8537 8538 8540 8545 8558 8559 8560 8561 8564 8569
        8573 8574 8589 8609 8613 8629 8630 8632 8633 8635 8636 8638 8639
        8640 8643 8646 8647 8648 8649 8650 8658 8661 8668 8669 8672 8674
        8681 8683 8698 8712 8716 8729 8731 8732 8733 8734 8735 8736 8740
        8741 8742 8743 8745 8746 8749 8752 8762 8766 8767 8768 8771 8776
        8777 8780 8782 8783 8789 8790 8792 8797 8798 8801 8820 8821 8824
        8825 8848 8851 8857 8865 8869 8871 8872 8875 8876 8877 8878 8881
        8895 8896 8908 8909 8914 8920 8921 8935 8936 8937 8938 8939 8940
        8947 8952 8960 8961 8965 8968 8969 8970 8971 8972 8983 8986 8987
        9003 9013 9014 9015 9016 9017 9019 9020 9021 9022 9023 9025 9030
        9031 9032 9035 9049 9065 9080 9087 9089 9091 9092 9093 9094 9096
        9098 9102 9113 9114 9116 9122 9126 9127 9129 9130 9131 9132 9151
        9152 9158 9159 9160 9161 9182 9186 9190 9202 9203 9225 9230 9236
        9240 9241 9250 9252 9255 9260 9262 9264 9267 9275 9277 9279 9283
        9284 9285 9286 9293 9295 9299 9301 9302 9303 9304 9305 9307 9311
        9312 9315 9316 9318 9319 9331 9333 9335 9336 9338 9339 9342 9343
        9345 9346 9348 9349 9350 9355 9356 9363 9380 9382 9383 9392 9395
        9397 9399 9400 9401 9407 9410 9414 9415 9419 9420 9421 9423 9425
        9444 9445 9446 9447 9450 9464 9465 9469 9470 9477 9480 9481 9482
        9494 9501 9502 9511 9513 9514 9517 9519 9520 9523 9524 9525 9526
        9527 9531 9532 9534 9543 9557 9558 9559 9560 9571 9573 9574 9575
        9576 9578 9588 9589 9590 9591 9592 9598 9599 9609 9610 9612 9613
        9621 9624 9627 9628 9629 9630 9638 9647 9649 9652 9653 9654 9660
        9665 9666 9668 9672 9685 9692 9693 9703 9708 9709 9710 9711 9712
        9715 9727 9730 9731 9732 9733 9758 9766 9768 9769 9774 9795 9796
        9797 9798 9799 9800 9807 9811 9812 9814 9815 9820 9833 9834 9837
        9874 9877 9878 9882 9886 9889 9890 9895 9903 9905 9908 9910 9912
        9929 9936 9939 9944 9945 9947 9948 9949 9952 9953 9972 9975 9976
        9978 9981 9984 9985 9987 9989 9994 9999

  Surfaces:

INSTANCE LEVEL
  node sets:
    Instance name: PART-1-1
      node set name: SET-1
        number of nodes: 2609
        nodes: 
          1 2 3 4 5 6 7 8 9 10 11 12 13 14 15 16 17 18 19 20 21 22 23 24
          25 26 27 28 29 30 31 32 33 34 35 36 37 38 39 40 41 42 43 44 45
          46 47 48 49 50 51 52 53 54 55 56 57 58 59 60 61 62 63 64 65 66
          67 68 69 70 71 72 73 74 75 76 77 78 79 80 81 82 83 84 85 86 87
          88 89 90 91 92 93 94 95 96 97 98 99 100 101 102 103 104 105
          106 107 108 109 110 111 112 113 114 115 116 117 118 119 120
          121 122 123 124 125 126 127 128 129 130 131 132 133 134 135
          136 137 138 139 140 141 142 143 144 145 146 147 148 149 150
          151 152 153 154 155 156 157 158 159 160 161 162 163 164 165
          166 167 168 169 170 171 172 173 174 175 176 177 178 179 180
          181 182 183 184 185 186 187 188 189 190 191 192 193 194 195
          196 197 198 199 200 201 202 203 204 205 206 207 208 209 210
          211 212 213 214 215 216 217 218 219 220 221 222 223 224 225
          226 227 228 229 230 231 232 233 234 235 236 237 238 239 240
          241 242 243 244 245 246 247 248 249 250 251 252 253 254 255
          256 257 258 259 260 261 262 263 264 265 266 267 268 269 270
          271 272 273 274 275 276 277 278 279 280 281 282 283 284 285
          286 287 288 289 290 291 292 293 294 295 296 297 298 299 300
          301 302 303 304 305 306 307 308 309 310 311 312 313 314 315
          316 317 318 319 320 321 322 323 324 325 326 327 328 329 330
          331 332 333 334 335 336 337 338 339 340 341 342 343 344 345
          346 347 348 349 350 351 352 353 354 355 356 357 358 359 360
          361 362 363 364 365 366 367 368 369 370 371 372 373 374 375
          376 377 378 379 380 381 382 383 384 385 386 387 388 389 390
          391 392 393 394 395 396 397 398 399 400 401 402 403 404 405
          406 407 408 409 410 411 412 413 414 415 416 417 418 419 420
          421 422 423 424 425 426 427 428 429 430 431 432 433 434 435
          436 437 438 439 440 441 442 443 444 445 446 447 448 449 450
          451 452 453 454 455 456 457 458 459 460 461 462 463 464 465
          466 467 468 469 470 471 472 473 474 475 476 477 478 479 480
          481 482 483 484 485 486 487 488 489 490 491 492 493 494 495
          496 497 498 499 500 501 502 503 504 505 506 507 508 509 510
          511 512 513 514 515 516 517 518 519 520 521 522 523 524 525
          526 527 528 529 530 531 532 533 534 535 536 537 538 539 540
          541 542 543 544 545 546 547 548 549 550 551 552 553 554 555
          556 557 558 559 560 561 562 563 564 565 566 567 568 569 570
          571 572 573 574 575 576 577 578 579 580 581 582 583 584 585
          586 587 588 589 590 591 592 593 594 595 596 597 598 599 600
          601 602 603 604 605 606 607 608 609 610 611 612 613 614 615
          616 617 618 619 620 621 622 623 624 625 626 627 628 629 630
          631 632 633 634 635 636 637 638 639 640 641 642 643 644 645
          646 647 648 649 650 651 652 653 654 655 656 657 658 659 660
          661 662 663 664 665 666 667 668 669 670 671 672 673 674 675
          676 677 678 679 680 681 682 683 684 685 686 687 688 689 690
          691 692 693 694 695 696 697 698 699 700 701 702 703 704 705
          706 707 708 709 710 711 712 713 714 715 716 717 718 719 720
          721 722 723 724 725 726 727 728 729 730 731 732 733 734 735
          736 737 738 739 740 741 742 743 744 745 746 747 748 749 750
          751 752 753 754 755 756 757 758 759 760 761 762 763 764 765
          766 767 768 769 770 771 772 773 774 775 776 777 778 779 780
          781 782 783 784 785 786 787 788 789 790 791 792 793 794 795
          796 797 798 799 800 801 802 803 804 805 806 807 808 809 810
          811 812 813 814 815 816 817 818 819 820 821 822 823 824 825
          826 827 828 829 830 831 832 833 834 835 836 837 838 839 840
          841 842 843 844 845 846 847 848 849 850 851 852 853 854 855
          856 857 858 859 860 861 862 863 864 865 866 867 868 869 870
          871 872 873 874 875 876 877 878 879 880 881 882 883 884 885
          886 887 888 889 890 891 892 893 894 895 896 897 898 899 900
          901 902 903 904 905 906 907 908 909 910 911 912 913 914 915
          916 917 918 919 920 921 922 923 924 925 926 927 928 929 930
          931 932 933 934 935 936 937 938 939 940 941 942 943 944 945
          946 947 948 949 950 951 952 953 954 955 956 957 958 959 960
          961 962 963 964 965 966 967 968 969 970 971 972 973 974 975
          976 977 978 979 980 981 982 983 984 985 986 987 988 989 990
          991 992 993 994 995 996 997 998 999 1000 1001 1002 1003 1004
          1005 1006 1007 1008 1009 1010 1011 1012 1013 1014 1015 1016
          1017 1018 1019 1020 1021 1022 1023 1024 1025 1026 1027 1028
          1029 1030 1031 1032 1033 1034 1035 1036 1037 1038 1039 1040
          1041 1042 1043 1044 1045 1046 1047 1048 1049 1050 1051 1052
          1053 1054 1055 1056 1057 1058 1059 1060 1061 1062 1063 1064
          1065 1066 1067 1068 1069 1070 1071 1072 1073 1074 1075 1076
          1077 1078 1079 1080 1081 1082 1083 1084 1085 1086 1087 1088
          1089 1090 1091 1092 1093 1094 1095 1096 1097 1098 1099 1100
          1101 1102 1103 1104 1105 1106 1107 1108 1109 1110 1111 1112
          1113 1114 1115 1116 1117 1118 1119 1120 1121 1122 1123 1124
          1125 1126 1127 1128 1129 1130 1131 1132 1133 1134 1135 1136
          1137 1138 1139 1140 1141 1142 1143 1144 1145 1146 1147 1148
          1149 1150 1151 1152 1153 1154 1155 1156 1157 1158 1159 1160
          1161 1162 1163 1164 1165 1166 1167 1168 1169 1170 1171 1172
          1173 1174 1175 1176 1177 1178 1179 1180 1181 1182 1183 1184
          1185 1186 1187 1188 1189 1190 1191 1192 1193 1194 1195 1196
          1197 1198 1199 1200 1201 1202 1203 1204 1205 1206 1207 1208
          1209 1210 1211 1212 1213 1214 1215 1216 1217 1218 1219 1220
          1221 1222 1223 1224 1225 1226 1227 1228 1229 1230 1231 1232
          1233 1234 1235 1236 1237 1238 1239 1240 1241 1242 1243 1244
          1245 1246 1247 1248 1249 1250 1251 1252 1253 1254 1255 1256
          1257 1258 1259 1260 1261 1262 1263 1264 1265 1266 1267 1268
          1269 1270 1271 1272 1273 1274 1275 1276 1277 1278 1279 1280
          1281 1282 1283 1284 1285 1286 1287 1288 1289 1290 1291 1292
          1293 1294 1295 1296 1297 1298 1299 1300 1301 1302 1303 1304
          1305 1306 1307 1308 1309 1310 1311 1312 1313 1314 1315 1316
          1317 1318 1319 1320 1321 1322 1323 1324 1325 1326 1327 1328
          1329 1330 1331 1332 1333 1334 1335 1336 1337 1338 1339 1340
          1341 1342 1343 1344 1345 1346 1347 1348 1349 1350 1351 1352
          1353 1354 1355 1356 1357 1358 1359 1360 1361 1362 1363 1364
          1365 1366 1367 1368 1369 1370 1371 1372 1373 1374 1375 1376
          1377 1378 1379 1380 1381 1382 1383 1384 1385 1386 1387 1388
          1389 1390 1391 1392 1393 1394 1395 1396 1397 1398 1399 1400
          1401 1402 1403 1404 1405 1406 1407 1408 1409 1410 1411 1412
          1413 1414 1415 1416 1417 1418 1419 1420 1421 1422 1423 1424
          1425 1426 1427 1428 1429 1430 1431 1432 1433 1434 1435 1436
          1437 1438 1439 1440 1441 1442 1443 1444 1445 1446 1447 1448
          1449 1450 1451 1452 1453 1454 1455 1456 1457 1458 1459 1460
          1461 1462 1463 1464 1465 1466 1467 1468 1469 1470 1471 1472
          1473 1474 1475 1476 1477 1478 1479 1480 1481 1482 1483 1484
          1485 1486 1487 1488 1489 1490 1491 1492 1493 1494 1495 1496
          1497 1498 1499 1500 1501 1502 1503 1504 1505 1506 1507 1508
          1509 1510 1511 1512 1513 1514 1515 1516 1517 1518 1519 1520
          1521 1522 1523 1524 1525 1526 1527 1528 1529 1530 1531 1532
          1533 1534 1535 1536 1537 1538 1539 1540 1541 1542 1543 1544
          1545 1546 1547 1548 1549 1550 1551 1552 1553 1554 1555 1556
          1557 1558 1559 1560 1561 1562 1563 1564 1565 1566 1567 1568
          1569 1570 1571 1572 1573 1574 1575 1576 1577 1578 1579 1580
          1581 1582 1583 1584 1585 1586 1587 1588 1589 1590 1591 1592
          1593 1594 1595 1596 1597 1598 1599 1600 1601 1602 1603 1604
          1605 1606 1607 1608 1609 1610 1611 1612 1613 1614 1615 1616
          1617 1618 1619 1620 1621 1622 1623 1624 1625 1626 1627 1628
          1629 1630 1631 1632 1633 1634 1635 1636 1637 1638 1639 1640
          1641 1642 1643 1644 1645 1646 1647 1648 1649 1650 1651 1652
          1653 1654 1655 1656 1657 1658 1659 1660 1661 1662 1663 1664
          1665 1666 1667 1668 1669 1670 1671 1672 1673 1674 1675 1676
          1677 1678 1679 1680 1681 1682 1683 1684 1685 1686 1687 1688
          1689 1690 1691 1692 1693 1694 1695 1696 1697 1698 1699 1700
          1701 1702 1703 1704 1705 1706 1707 1708 1709 1710 1711 1712
          1713 1714 1715 1716 1717 1718 1719 1720 1721 1722 1723 1724
          1725 1726 1727 1728 1729 1730 1731 1732 1733 1734 1735 1736
          1737 1738 1739 1740 1741 1742 1743 1744 1745 1746 1747 1748
          1749 1750 1751 1752 1753 1754 1755 1756 1757 1758 1759 1760
          1761 1762 1763 1764 1765 1766 1767 1768 1769 1770 1771 1772
          1773 1774 1775 1776 1777 1778 1779 1780 1781 1782 1783 1784
          1785 1786 1787 1788 1789 1790 1791 1792 1793 1794 1795 1796
          1797 1798 1799 1800 1801 1802 1803 1804 1805 1806 1807 1808
          1809 1810 1811 1812 1813 1814 1815 1816 1817 1818 1819 1820
          1821 1822 1823 1824 1825 1826 1827 1828 1829 1830 1831 1832
          1833 1834 1835 1836 1837 1838 1839 1840 1841 1842 1843 1844
          1845 1846 1847 1848 1849 1850 1851 1852 1853 1854 1855 1856
          1857 1858 1859 1860 1861 1862 1863 1864 1865 1866 1867 1868
          1869 1870 1871 1872 1873 1874 1875 1876 1877 1878 1879 1880
          1881 1882 1883 1884 1885 1886 1887 1888 1889 1890 1891 1892
          1893 1894 1895 1896 1897 1898 1899 1900 1901 1902 1903 1904
          1905 1906 1907 1908 1909 1910 1911 1912 1913 1914 1915 1916
          1917 1918 1919 1920 1921 1922 1923 1924 1925 1926 1927 1928
          1929 1930 1931 1932 1933 1934 1935 1936 1937 1938 1939 1940
          1941 1942 1943 1944 1945 1946 1947 1948 1949 1950 1951 1952
          1953 1954 1955 1956 1957 1958 1959 1960 1961 1962 1963 1964
          1965 1966 1967 1968 1969 1970 1971 1972 1973 1974 1975 1976
          1977 1978 1979 1980 1981 1982 1983 1984 1985 1986 1987 1988
          1989 1990 1991 1992 1993 1994 1995 1996 1997 1998 1999 2000
          2001 2002 2003 2004 2005 2006 2007 2008 2009 2010 2011 2012
          2013 2014 2015 2016 2017 2018 2019 2020 2021 2022 2023 2024
          2025 2026 2027 2028 2029 2030 2031 2032 2033 2034 2035 2036
          2037 2038 2039 2040 2041 2042 2043 2044 2045 2046 2047 2048
          2049 2050 2051 2052 2053 2054 2055 2056 2057 2058 2059 2060
          2061 2062 2063 2064 2065 2066 2067 2068 2069 2070 2071 2072
          2073 2074 2075 2076 2077 2078 2079 2080 2081 2082 2083 2084
          2085 2086 2087 2088 2089 2090 2091 2092 2093 2094 2095 2096
          2097 2098 2099 2100 2101 2102 2103 2104 2105 2106 2107 2108
          2109 2110 2111 2112 2113 2114 2115 2116 2117 2118 2119 2120
          2121 2122 2123 2124 2125 2126 2127 2128 2129 2130 2131 2132
          2133 2134 2135 2136 2137 2138 2139 2140 2141 2142 2143 2144
          2145 2146 2147 2148 2149 2150 2151 2152 2153 2154 2155 2156
          2157 2158 2159 2160 2161 2162 2163 2164 2165 2166 2167 2168
          2169 2170 2171 2172 2173 2174 2175 2176 2177 2178 2179 2180
          2181 2182 2183 2184 2185 2186 2187 2188 2189 2190 2191 2192
          2193 2194 2195 2196 2197 2198 2199 2200 2201 2202 2203 2204
          2205 2206 2207 2208 2209 2210 2211 2212 2213 2214 2215 2216
          2217 2218 2219 2220 2221 2222 2223 2224 2225 2226 2227 2228
          2229 2230 2231 2232 2233 2234 2235 2236 2237 2238 2239 2240
          2241 2242 2243 2244 2245 2246 2247 2248 2249 2250 2251 2252
          2253 2254 2255 2256 2257 2258 2259 2260 2261 2262 2263 2264
          2265 2266 2267 2268 2269 2270 2271 2272 2273 2274 2275 2276
          2277 2278 2279 2280 2281 2282 2283 2284 2285 2286 2287 2288
          2289 2290 2291 2292 2293 2294 2295 2296 2297 2298 2299 2300
          2301 2302 2303 2304 2305 2306 2307 2308 2309 2310 2311 2312
          2313 2314 2315 2316 2317 2318 2319 2320 2321 2322 2323 2324
          2325 2326 2327 2328 2329 2330 2331 2332 2333 2334 2335 2336
          2337 2338 2339 2340 2341 2342 2343 2344 2345 2346 2347 2348
          2349 2350 2351 2352 2353 2354 2355 2356 2357 2358 2359 2360
          2361 2362 2363 2364 2365 2366 2367 2368 2369 2370 2371 2372
          2373 2374 2375 2376 2377 2378 2379 2380 2381 2382 2383 2384
          2385 2386 2387 2388 2389 2390 2391 2392 2393 2394 2395 2396
          2397 2398 2399 2400 2401 2402 2403 2404 2405 2406 2407 2408
          2409 2410 2411 2412 2413 2414 2415 2416 2417 2418 2419 2420
          2421 2422 2423 2424 2425 2426 2427 2428 2429 2430 2431 2432
          2433 2434 2435 2436 2437 2438 2439 2440 2441 2442 2443 2444
          2445 2446 2447 2448 2449 2450 2451 2452 2453 2454 2455 2456
          2457 2458 2459 2460 2461 2462 2463 2464 2465 2466 2467 2468
          2469 2470 2471 2472 2473 2474 2475 2476 2477 2478 2479 2480
          2481 2482 2483 2484 2485 2486 2487 2488 2489 2490 2491 2492
          2493 2494 2495 2496 2497 2498 2499 2500 2501 2502 2503 2504
          2505 2506 2507 2508 2509 2510 2511 2512 2513 2514 2515 2516
          2517 2518 2519 2520 2521 2522 2523 2524 2525 2526 2527 2528
          2529 2530 2531 2532 2533 2534 2535 2536 2537 2538 2539 2540
          2541 2542 2543 2544 2545 2546 2547 2548 2549 2550 2551 2552
          2553 2554 2555 2556 2557 2558 2559 2560 2561 2562 2563 2564
          2565 2566 2567 2568 2569 2570 2571 2572 2573 2574 2575 2576
          2577 2578 2579 2580 2581 2582 2583 2584 2585 2586 2587 2588
          2589 2590 2591 2592 2593 2594 2595 2596 2597 2598 2599 2600
          2601 2602 2603 2604 2605 2606 2607 2608 2609

  element sets:
    Instance name: PART-1-1
      element set name: SET-1
        number of elements: 10001
        elements: 
          1 2 3 4 5 6 7 8 9 10 11 12 13 14 15 16 17 18 19 20 21 22 23 24
          25 26 27 28 29 30 31 32 33 34 35 36 37 38 39 40 41 42 43 44 45
          46 47 48 49 50 51 52 53 54 55 56 57 58 59 60 61 62 63 64 65 66
          67 68 69 70 71 72 73 74 75 76 77 78 79 80 81 82 83 84 85 86 87
          88 89 90 91 92 93 94 95 96 97 98 99 100 101 102 103 104 105
          106 107 108 109 110 111 112 113 114 115 116 117 118 119 120
          121 122 123 124 125 126 127 128 129 130 131 132 133 134 135
          136 137 138 139 140 141 142 143 144 145 146 147 148 149 150
          151 152 153 154 155 156 157 158 159 160 161 162 163 164 165
          166 167 168 169 170 171 172 173 174 175 176 177 178 179 180
          181 182 183 184 185 186 187 188 189 190 191 192 193 194 195
          196 197 198 199 200 201 202 203 204 205 206 207 208 209 210
          211 212 213 214 215 216 217 218 219 220 221 222 223 224 225
          226 227 228 229 230 231 232 233 234 235 236 237 238 239 240
          241 242 243 244 245 246 247 248 249 250 251 252 253 254 255
          256 257 258 259 260 261 262 263 264 265 266 267 268 269 270
          271 272 273 274 275 276 277 278 279 280 281 282 283 284 285
          286 287 288 289 290 291 292 293 294 295 296 297 298 299 300
          301 302 303 304 305 306 307 308 309 310 311 312 313 314 315
          316 317 318 319 320 321 322 323 324 325 326 327 328 329 330
          331 332 333 334 335 336 337 338 339 340 341 342 343 344 345
          346 347 348 349 350 351 352 353 354 355 356 357 358 359 360
          361 362 363 364 365 366 367 368 369 370 371 372 373 374 375
          376 377 378 379 380 381 382 383 384 385 386 387 388 389 390
          391 392 393 394 395 396 397 398 399 400 401 402 403 404 405
          406 407 408 409 410 411 412 413 414 415 416 417 418 419 420
          421 422 423 424 425 426 427 428 429 430 431 432 433 434 435
          436 437 438 439 440 441 442 443 444 445 446 447 448 449 450
          451 452 453 454 455 456 457 458 459 460 461 462 463 464 465
          466 467 468 469 470 471 472 473 474 475 476 477 478 479 480
          481 482 483 484 485 486 487 488 489 490 491 492 493 494 495
          496 497 498 499 500 501 502 503 504 505 506 507 508 509 510
          511 512 513 514 515 516 517 518 519 520 521 522 523 524 525
          526 527 528 529 530 531 532 533 534 535 536 537 538 539 540
          541 542 543 544 545 546 547 548 549 550 551 552 553 554 555
          556 557 558 559 560 561 562 563 564 565 566 567 568 569 570
          571 572 573 574 575 576 577 578 579 580 581 582 583 584 585
          586 587 588 589 590 591 592 593 594 595 596 597 598 599 600
          601 602 603 604 605 606 607 608 609 610 611 612 613 614 615
          616 617 618 619 620 621 622 623 624 625 626 627 628 629 630
          631 632 633 634 635 636 637 638 639 640 641 642 643 644 645
          646 647 648 649 650 651 652 653 654 655 656 657 658 659 660
          661 662 663 664 665 666 667 668 669 670 671 672 673 674 675
          676 677 678 679 680 681 682 683 684 685 686 687 688 689 690
          691 692 693 694 695 696 697 698 699 700 701 702 703 704 705
          706 707 708 709 710 711 712 713 714 715 716 717 718 719 720
          721 722 723 724 725 726 727 728 729 730 731 732 733 734 735
          736 737 738 739 740 741 742 743 744 745 746 747 748 749 750
          751 752 753 754 755 756 757 758 759 760 761 762 763 764 765
          766 767 768 769 770 771 772 773 774 775 776 777 778 779 780
          781 782 783 784 785 786 787 788 789 790 791 792 793 794 795
          796 797 798 799 800 801 802 803 804 805 806 807 808 809 810
          811 812 813 814 815 816 817 818 819 820 821 822 823 824 825
          826 827 828 829 830 831 832 833 834 835 836 837 838 839 840
          841 842 843 844 845 846 847 848 849 850 851 852 853 854 855
          856 857 858 859 860 861 862 863 864 865 866 867 868 869 870
          871 872 873 874 875 876 877 878 879 880 881 882 883 884 885
          886 887 888 889 890 891 892 893 894 895 896 897 898 899 900
          901 902 903 904 905 906 907 908 909 910 911 912 913 914 915
          916 917 918 919 920 921 922 923 924 925 926 927 928 929 930
          931 932 933 934 935 936 937 938 939 940 941 942 943 944 945
          946 947 948 949 950 951 952 953 954 955 956 957 958 959 960
          961 962 963 964 965 966 967 968 969 970 971 972 973 974 975
          976 977 978 979 980 981 982 983 984 985 986 987 988 989 990
          991 992 993 994 995 996 997 998 999 1000 1001 1002 1003 1004
          1005 1006 1007 1008 1009 1010 1011 1012 1013 1014 1015 1016
          1017 1018 1019 1020 1021 1022 1023 1024 1025 1026 1027 1028
          1029 1030 1031 1032 1033 1034 1035 1036 1037 1038 1039 1040
          1041 1042 1043 1044 1045 1046 1047 1048 1049 1050 1051 1052
          1053 1054 1055 1056 1057 1058 1059 1060 1061 1062 1063 1064
          1065 1066 1067 1068 1069 1070 1071 1072 1073 1074 1075 1076
          1077 1078 1079 1080 1081 1082 1083 1084 1085 1086 1087 1088
          1089 1090 1091 1092 1093 1094 1095 1096 1097 1098 1099 1100
          1101 1102 1103 1104 1105 1106 1107 1108 1109 1110 1111 1112
          1113 1114 1115 1116 1117 1118 1119 1120 1121 1122 1123 1124
          1125 1126 1127 1128 1129 1130 1131 1132 1133 1134 1135 1136
          1137 1138 1139 1140 1141 1142 1143 1144 1145 1146 1147 1148
          1149 1150 1151 1152 1153 1154 1155 1156 1157 1158 1159 1160
          1161 1162 1163 1164 1165 1166 1167 1168 1169 1170 1171 1172
          1173 1174 1175 1176 1177 1178 1179 1180 1181 1182 1183 1184
          1185 1186 1187 1188 1189 1190 1191 1192 1193 1194 1195 1196
          1197 1198 1199 1200 1201 1202 1203 1204 1205 1206 1207 1208
          1209 1210 1211 1212 1213 1214 1215 1216 1217 1218 1219 1220
          1221 1222 1223 1224 1225 1226 1227 1228 1229 1230 1231 1232
          1233 1234 1235 1236 1237 1238 1239 1240 1241 1242 1243 1244
          1245 1246 1247 1248 1249 1250 1251 1252 1253 1254 1255 1256
          1257 1258 1259 1260 1261 1262 1263 1264 1265 1266 1267 1268
          1269 1270 1271 1272 1273 1274 1275 1276 1277 1278 1279 1280
          1281 1282 1283 1284 1285 1286 1287 1288 1289 1290 1291 1292
          1293 1294 1295 1296 1297 1298 1299 1300 1301 1302 1303 1304
          1305 1306 1307 1308 1309 1310 1311 1312 1313 1314 1315 1316
          1317 1318 1319 1320 1321 1322 1323 1324 1325 1326 1327 1328
          1329 1330 1331 1332 1333 1334 1335 1336 1337 1338 1339 1340
          1341 1342 1343 1344 1345 1346 1347 1348 1349 1350 1351 1352
          1353 1354 1355 1356 1357 1358 1359 1360 1361 1362 1363 1364
          1365 1366 1367 1368 1369 1370 1371 1372 1373 1374 1375 1376
          1377 1378 1379 1380 1381 1382 1383 1384 1385 1386 1387 1388
          1389 1390 1391 1392 1393 1394 1395 1396 1397 1398 1399 1400
          1401 1402 1403 1404 1405 1406 1407 1408 1409 1410 1411 1412
          1413 1414 1415 1416 1417 1418 1419 1420 1421 1422 1423 1424
          1425 1426 1427 1428 1429 1430 1431 1432 1433 1434 1435 1436
          1437 1438 1439 1440 1441 1442 1443 1444 1445 1446 1447 1448
          1449 1450 1451 1452 1453 1454 1455 1456 1457 1458 1459 1460
          1461 1462 1463 1464 1465 1466 1467 1468 1469 1470 1471 1472
          1473 1474 1475 1476 1477 1478 1479 1480 1481 1482 1483 1484
          1485 1486 1487 1488 1489 1490 1491 1492 1493 1494 1495 1496
          1497 1498 1499 1500 1501 1502 1503 1504 1505 1506 1507 1508
          1509 1510 1511 1512 1513 1514 1515 1516 1517 1518 1519 1520
          1521 1522 1523 1524 1525 1526 1527 1528 1529 1530 1531 1532
          1533 1534 1535 1536 1537 1538 1539 1540 1541 1542 1543 1544
          1545 1546 1547 1548 1549 1550 1551 1552 1553 1554 1555 1556
          1557 1558 1559 1560 1561 1562 1563 1564 1565 1566 1567 1568
          1569 1570 1571 1572 1573 1574 1575 1576 1577 1578 1579 1580
          1581 1582 1583 1584 1585 1586 1587 1588 1589 1590 1591 1592
          1593 1594 1595 1596 1597 1598 1599 1600 1601 1602 1603 1604
          1605 1606 1607 1608 1609 1610 1611 1612 1613 1614 1615 1616
          1617 1618 1619 1620 1621 1622 1623 1624 1625 1626 1627 1628
          1629 1630 1631 1632 1633 1634 1635 1636 1637 1638 1639 1640
          1641 1642 1643 1644 1645 1646 1647 1648 1649 1650 1651 1652
          1653 1654 1655 1656 1657 1658 1659 1660 1661 1662 1663 1664
          1665 1666 1667 1668 1669 1670 1671 1672 1673 1674 1675 1676
          1677 1678 1679 1680 1681 1682 1683 1684 1685 1686 1687 1688
          1689 1690 1691 1692 1693 1694 1695 1696 1697 1698 1699 1700
          1701 1702 1703 1704 1705 1706 1707 1708 1709 1710 1711 1712
          1713 1714 1715 1716 1717 1718 1719 1720 1721 1722 1723 1724
          1725 1726 1727 1728 1729 1730 1731 1732 1733 1734 1735 1736
          1737 1738 1739 1740 1741 1742 1743 1744 1745 1746 1747 1748
          1749 1750 1751 1752 1753 1754 1755 1756 1757 1758 1759 1760
          1761 1762 1763 1764 1765 1766 1767 1768 1769 1770 1771 1772
          1773 1774 1775 1776 1777 1778 1779 1780 1781 1782 1783 1784
          1785 1786 1787 1788 1789 1790 1791 1792 1793 1794 1795 1796
          1797 1798 1799 1800 1801 1802 1803 1804 1805 1806 1807 1808
          1809 1810 1811 1812 1813 1814 1815 1816 1817 1818 1819 1820
          1821 1822 1823 1824 1825 1826 1827 1828 1829 1830 1831 1832
          1833 1834 1835 1836 1837 1838 1839 1840 1841 1842 1843 1844
          1845 1846 1847 1848 1849 1850 1851 1852 1853 1854 1855 1856
          1857 1858 1859 1860 1861 1862 1863 1864 1865 1866 1867 1868
          1869 1870 1871 1872 1873 1874 1875 1876 1877 1878 1879 1880
          1881 1882 1883 1884 1885 1886 1887 1888 1889 1890 1891 1892
          1893 1894 1895 1896 1897 1898 1899 1900 1901 1902 1903 1904
          1905 1906 1907 1908 1909 1910 1911 1912 1913 1914 1915 1916
          1917 1918 1919 1920 1921 1922 1923 1924 1925 1926 1927 1928
          1929 1930 1931 1932 1933 1934 1935 1936 1937 1938 1939 1940
          1941 1942 1943 1944 1945 1946 1947 1948 1949 1950 1951 1952
          1953 1954 1955 1956 1957 1958 1959 1960 1961 1962 1963 1964
          1965 1966 1967 1968 1969 1970 1971 1972 1973 1974 1975 1976
          1977 1978 1979 1980 1981 1982 1983 1984 1985 1986 1987 1988
          1989 1990 1991 1992 1993 1994 1995 1996 1997 1998 1999 2000
          2001 2002 2003 2004 2005 2006 2007 2008 2009 2010 2011 2012
          2013 2014 2015 2016 2017 2018 2019 2020 2021 2022 2023 2024
          2025 2026 2027 2028 2029 2030 2031 2032 2033 2034 2035 2036
          2037 2038 2039 2040 2041 2042 2043 2044 2045 2046 2047 2048
          2049 2050 2051 2052 2053 2054 2055 2056 2057 2058 2059 2060
          2061 2062 2063 2064 2065 2066 2067 2068 2069 2070 2071 2072
          2073 2074 2075 2076 2077 2078 2079 2080 2081 2082 2083 2084
          2085 2086 2087 2088 2089 2090 2091 2092 2093 2094 2095 2096
          2097 2098 2099 2100 2101 2102 2103 2104 2105 2106 2107 2108
          2109 2110 2111 2112 2113 2114 2115 2116 2117 2118 2119 2120
          2121 2122 2123 2124 2125 2126 2127 2128 2129 2130 2131 2132
          2133 2134 2135 2136 2137 2138 2139 2140 2141 2142 2143 2144
          2145 2146 2147 2148 2149 2150 2151 2152 2153 2154 2155 2156
          2157 2158 2159 2160 2161 2162 2163 2164 2165 2166 2167 2168
          2169 2170 2171 2172 2173 2174 2175 2176 2177 2178 2179 2180
          2181 2182 2183 2184 2185 2186 2187 2188 2189 2190 2191 2192
          2193 2194 2195 2196 2197 2198 2199 2200 2201 2202 2203 2204
          2205 2206 2207 2208 2209 2210 2211 2212 2213 2214 2215 2216
          2217 2218 2219 2220 2221 2222 2223 2224 2225 2226 2227 2228
          2229 2230 2231 2232 2233 2234 2235 2236 2237 2238 2239 2240
          2241 2242 2243 2244 2245 2246 2247 2248 2249 2250 2251 2252
          2253 2254 2255 2256 2257 2258 2259 2260 2261 2262 2263 2264
          2265 2266 2267 2268 2269 2270 2271 2272 2273 2274 2275 2276
          2277 2278 2279 2280 2281 2282 2283 2284 2285 2286 2287 2288
          2289 2290 2291 2292 2293 2294 2295 2296 2297 2298 2299 2300
          2301 2302 2303 2304 2305 2306 2307 2308 2309 2310 2311 2312
          2313 2314 2315 2316 2317 2318 2319 2320 2321 2322 2323 2324
          2325 2326 2327 2328 2329 2330 2331 2332 2333 2334 2335 2336
          2337 2338 2339 2340 2341 2342 2343 2344 2345 2346 2347 2348
          2349 2350 2351 2352 2353 2354 2355 2356 2357 2358 2359 2360
          2361 2362 2363 2364 2365 2366 2367 2368 2369 2370 2371 2372
          2373 2374 2375 2376 2377 2378 2379 2380 2381 2382 2383 2384
          2385 2386 2387 2388 2389 2390 2391 2392 2393 2394 2395 2396
          2397 2398 2399 2400 2401 2402 2403 2404 2405 2406 2407 2408
          2409 2410 2411 2412 2413 2414 2415 2416 2417 2418 2419 2420
          2421 2422 2423 2424 2425 2426 2427 2428 2429 2430 2431 2432
          2433 2434 2435 2436 2437 2438 2439 2440 2441 2442 2443 2444
          2445 2446 2447 2448 2449 2450 2451 2452 2453 2454 2455 2456
          2457 2458 2459 2460 2461 2462 2463 2464 2465 2466 2467 2468
          2469 2470 2471 2472 2473 2474 2475 2476 2477 2478 2479 2480
          2481 2482 2483 2484 2485 2486 2487 2488 2489 2490 2491 2492
          2493 2494 2495 2496 2497 2498 2499 2500 2501 2502 2503 2504
          2505 2506 2507 2508 2509 2510 2511 2512 2513 2514 2515 2516
          2517 2518 2519 2520 2521 2522 2523 2524 2525 2526 2527 2528
          2529 2530 2531 2532 2533 2534 2535 2536 2537 2538 2539 2540
          2541 2542 2543 2544 2545 2546 2547 2548 2549 2550 2551 2552
          2553 2554 2555 2556 2557 2558 2559 2560 2561 2562 2563 2564
          2565 2566 2567 2568 2569 2570 2571 2572 2573 2574 2575 2576
          2577 2578 2579 2580 2581 2582 2583 2584 2585 2586 2587 2588
          2589 2590 2591 2592 2593 2594 2595 2596 2597 2598 2599 2600
          2601 2602 2603 2604 2605 2606 2607 2608 2609 2610 2611 2612
          2613 2614 2615 2616 2617 2618 2619 2620 2621 2622 2623 2624
          2625 2626 2627 2628 2629 2630 2631 2632 2633 2634 2635 2636
          2637 2638 2639 2640 2641 2642 2643 2644 2645 2646 2647 2648
          2649 2650 2651 2652 2653 2654 2655 2656 2657 2658 2659 2660
          2661 2662 2663 2664 2665 2666 2667 2668 2669 2670 2671 2672
          2673 2674 2675 2676 2677 2678 2679 2680 2681 2682 2683 2684
          2685 2686 2687 2688 2689 2690 2691 2692 2693 2694 2695 2696
          2697 2698 2699 2700 2701 2702 2703 2704 2705 2706 2707 2708
          2709 2710 2711 2712 2713 2714 2715 2716 2717 2718 2719 2720
          2721 2722 2723 2724 2725 2726 2727 2728 2729 2730 2731 2732
          2733 2734 2735 2736 2737 2738 2739 2740 2741 2742 2743 2744
          2745 2746 2747 2748 2749 2750 2751 2752 2753 2754 2755 2756
          2757 2758 2759 2760 2761 2762 2763 2764 2765 2766 2767 2768
          2769 2770 2771 2772 2773 2774 2775 2776 2777 2778 2779 2780
          2781 2782 2783 2784 2785 2786 2787 2788 2789 2790 2791 2792
          2793 2794 2795 2796 2797 2798 2799 2800 2801 2802 2803 2804
          2805 2806 2807 2808 2809 2810 2811 2812 2813 2814 2815 2816
          2817 2818 2819 2820 2821 2822 2823 2824 2825 2826 2827 2828
          2829 2830 2831 2832 2833 2834 2835 2836 2837 2838 2839 2840
          2841 2842 2843 2844 2845 2846 2847 2848 2849 2850 2851 2852
          2853 2854 2855 2856 2857 2858 2859 2860 2861 2862 2863 2864
          2865 2866 2867 2868 2869 2870 2871 2872 2873 2874 2875 2876
          2877 2878 2879 2880 2881 2882 2883 2884 2885 2886 2887 2888
          2889 2890 2891 2892 2893 2894 2895 2896 2897 2898 2899 2900
          2901 2902 2903 2904 2905 2906 2907 2908 2909 2910 2911 2912
          2913 2914 2915 2916 2917 2918 2919 2920 2921 2922 2923 2924
          2925 2926 2927 2928 2929 2930 2931 2932 2933 2934 2935 2936
          2937 2938 2939 2940 2941 2942 2943 2944 2945 2946 2947 2948
          2949 2950 2951 2952 2953 2954 2955 2956 2957 2958 2959 2960
          2961 2962 2963 2964 2965 2966 2967 2968 2969 2970 2971 2972
          2973 2974 2975 2976 2977 2978 2979 2980 2981 2982 2983 2984
          2985 2986 2987 2988 2989 2990 2991 2992 2993 2994 2995 2996
          2997 2998 2999 3000 3001 3002 3003 3004 3005 3006 3007 3008
          3009 3010 3011 3012 3013 3014 3015 3016 3017 3018 3019 3020
          3021 3022 3023 3024 3025 3026 3027 3028 3029 3030 3031 3032
          3033 3034 3035 3036 3037 3038 3039 3040 3041 3042 3043 3044
          3045 3046 3047 3048 3049 3050 3051 3052 3053 3054 3055 3056
          3057 3058 3059 3060 3061 3062 3063 3064 3065 3066 3067 3068
          3069 3070 3071 3072 3073 3074 3075 3076 3077 3078 3079 3080
          3081 3082 3083 3084 3085 3086 3087 3088 3089 3090 3091 3092
          3093 3094 3095 3096 3097 3098 3099 3100 3101 3102 3103 3104
          3105 3106 3107 3108 3109 3110 3111 3112 3113 3114 3115 3116
          3117 3118 3119 3120 3121 3122 3123 3124 3125 3126 3127 3128
          3129 3130 3131 3132 3133 3134 3135 3136 3137 3138 3139 3140
          3141 3142 3143 3144 3145 3146 3147 3148 3149 3150 3151 3152
          3153 3154 3155 3156 3157 3158 3159 3160 3161 3162 3163 3164
          3165 3166 3167 3168 3169 3170 3171 3172 3173 3174 3175 3176
          3177 3178 3179 3180 3181 3182 3183 3184 3185 3186 3187 3188
          3189 3190 3191 3192 3193 3194 3195 3196 3197 3198 3199 3200
          3201 3202 3203 3204 3205 3206 3207 3208 3209 3210 3211 3212
          3213 3214 3215 3216 3217 3218 3219 3220 3221 3222 3223 3224
          3225 3226 3227 3228 3229 3230 3231 3232 3233 3234 3235 3236
          3237 3238 3239 3240 3241 3242 3243 3244 3245 3246 3247 3248
          3249 3250 3251 3252 3253 3254 3255 3256 3257 3258 3259 3260
          3261 3262 3263 3264 3265 3266 3267 3268 3269 3270 3271 3272
          3273 3274 3275 3276 3277 3278 3279 3280 3281 3282 3283 3284
          3285 3286 3287 3288 3289 3290 3291 3292 3293 3294 3295 3296
          3297 3298 3299 3300 3301 3302 3303 3304 3305 3306 3307 3308
          3309 3310 3311 3312 3313 3314 3315 3316 3317 3318 3319 3320
          3321 3322 3323 3324 3325 3326 3327 3328 3329 3330 3331 3332
          3333 3334 3335 3336 3337 3338 3339 3340 3341 3342 3343 3344
          3345 3346 3347 3348 3349 3350 3351 3352 3353 3354 3355 3356
          3357 3358 3359 3360 3361 3362 3363 3364 3365 3366 3367 3368
          3369 3370 3371 3372 3373 3374 3375 3376 3377 3378 3379 3380
          3381 3382 3383 3384 3385 3386 3387 3388 3389 3390 3391 3392
          3393 3394 3395 3396 3397 3398 3399 3400 3401 3402 3403 3404
          3405 3406 3407 3408 3409 3410 3411 3412 3413 3414 3415 3416
          3417 3418 3419 3420 3421 3422 3423 3424 3425 3426 3427 3428
          3429 3430 3431 3432 3433 3434 3435 3436 3437 3438 3439 3440
          3441 3442 3443 3444 3445 3446 3447 3448 3449 3450 3451 3452
          3453 3454 3455 3456 3457 3458 3459 3460 3461 3462 3463 3464
          3465 3466 3467 3468 3469 3470 3471 3472 3473 3474 3475 3476
          3477 3478 3479 3480 3481 3482 3483 3484 3485 3486 3487 3488
          3489 3490 3491 3492 3493 3494 3495 3496 3497 3498 3499 3500
          3501 3502 3503 3504 3505 3506 3507 3508 3509 3510 3511 3512
          3513 3514 3515 3516 3517 3518 3519 3520 3521 3522 3523 3524
          3525 3526 3527 3528 3529 3530 3531 3532 3533 3534 3535 3536
          3537 3538 3539 3540 3541 3542 3543 3544 3545 3546 3547 3548
          3549 3550 3551 3552 3553 3554 3555 3556 3557 3558 3559 3560
          3561 3562 3563 3564 3565 3566 3567 3568 3569 3570 3571 3572
          3573 3574 3575 3576 3577 3578 3579 3580 3581 3582 3583 3584
          3585 3586 3587 3588 3589 3590 3591 3592 3593 3594 3595 3596
          3597 3598 3599 3600 3601 3602 3603 3604 3605 3606 3607 3608
          3609 3610 3611 3612 3613 3614 3615 3616 3617 3618 3619 3620
          3621 3622 3623 3624 3625 3626 3627 3628 3629 3630 3631 3632
          3633 3634 3635 3636 3637 3638 3639 3640 3641 3642 3643 3644
          3645 3646 3647 3648 3649 3650 3651 3652 3653 3654 3655 3656
          3657 3658 3659 3660 3661 3662 3663 3664 3665 3666 3667 3668
          3669 3670 3671 3672 3673 3674 3675 3676 3677 3678 3679 3680
          3681 3682 3683 3684 3685 3686 3687 3688 3689 3690 3691 3692
          3693 3694 3695 3696 3697 3698 3699 3700 3701 3702 3703 3704
          3705 3706 3707 3708 3709 3710 3711 3712 3713 3714 3715 3716
          3717 3718 3719 3720 3721 3722 3723 3724 3725 3726 3727 3728
          3729 3730 3731 3732 3733 3734 3735 3736 3737 3738 3739 3740
          3741 3742 3743 3744 3745 3746 3747 3748 3749 3750 3751 3752
          3753 3754 3755 3756 3757 3758 3759 3760 3761 3762 3763 3764
          3765 3766 3767 3768 3769 3770 3771 3772 3773 3774 3775 3776
          3777 3778 3779 3780 3781 3782 3783 3784 3785 3786 3787 3788
          3789 3790 3791 3792 3793 3794 3795 3796 3797 3798 3799 3800
          3801 3802 3803 3804 3805 3806 3807 3808 3809 3810 3811 3812
          3813 3814 3815 3816 3817 3818 3819 3820 3821 3822 3823 3824
          3825 3826 3827 3828 3829 3830 3831 3832 3833 3834 3835 3836
          3837 3838 3839 3840 3841 3842 3843 3844 3845 3846 3847 3848
          3849 3850 3851 3852 3853 3854 3855 3856 3857 3858 3859 3860
          3861 3862 3863 3864 3865 3866 3867 3868 3869 3870 3871 3872
          3873 3874 3875 3876 3877 3878 3879 3880 3881 3882 3883 3884
          3885 3886 3887 3888 3889 3890 3891 3892 3893 3894 3895 3896
          3897 3898 3899 3900 3901 3902 3903 3904 3905 3906 3907 3908
          3909 3910 3911 3912 3913 3914 3915 3916 3917 3918 3919 3920
          3921 3922 3923 3924 3925 3926 3927 3928 3929 3930 3931 3932
          3933 3934 3935 3936 3937 3938 3939 3940 3941 3942 3943 3944
          3945 3946 3947 3948 3949 3950 3951 3952 3953 3954 3955 3956
          3957 3958 3959 3960 3961 3962 3963 3964 3965 3966 3967 3968
          3969 3970 3971 3972 3973 3974 3975 3976 3977 3978 3979 3980
          3981 3982 3983 3984 3985 3986 3987 3988 3989 3990 3991 3992
          3993 3994 3995 3996 3997 3998 3999 4000 4001 4002 4003 4004
          4005 4006 4007 4008 4009 4010 4011 4012 4013 4014 4015 4016
          4017 4018 4019 4020 4021 4022 4023 4024 4025 4026 4027 4028
          4029 4030 4031 4032 4033 4034 4035 4036 4037 4038 4039 4040
          4041 4042 4043 4044 4045 4046 4047 4048 4049 4050 4051 4052
          4053 4054 4055 4056 4057 4058 4059 4060 4061 4062 4063 4064
          4065 4066 4067 4068 4069 4070 4071 4072 4073 4074 4075 4076
          4077 4078 4079 4080 4081 4082 4083 4084 4085 4086 4087 4088
          4089 4090 4091 4092 4093 4094 4095 4096 4097 4098 4099 4100
          4101 4102 4103 4104 4105 4106 4107 4108 4109 4110 4111 4112
          4113 4114 4115 4116 4117 4118 4119 4120 4121 4122 4123 4124
          4125 4126 4127 4128 4129 4130 4131 4132 4133 4134 4135 4136
          4137 4138 4139 4140 4141 4142 4143 4144 4145 4146 4147 4148
          4149 4150 4151 4152 4153 4154 4155 4156 4157 4158 4159 4160
          4161 4162 4163 4164 4165 4166 4167 4168 4169 4170 4171 4172
          4173 4174 4175 4176 4177 4178 4179 4180 4181 4182 4183 4184
          4185 4186 4187 4188 4189 4190 4191 4192 4193 4194 4195 4196
          4197 4198 4199 4200 4201 4202 4203 4204 4205 4206 4207 4208
          4209 4210 4211 4212 4213 4214 4215 4216 4217 4218 4219 4220
          4221 4222 4223 4224 4225 4226 4227 4228 4229 4230 4231 4232
          4233 4234 4235 4236 4237 4238 4239 4240 4241 4242 4243 4244
          4245 4246 4247 4248 4249 4250 4251 4252 4253 4254 4255 4256
          4257 4258 4259 4260 4261 4262 4263 4264 4265 4266 4267 4268
          4269 4270 4271 4272 4273 4274 4275 4276 4277 4278 4279 4280
          4281 4282 4283 4284 4285 4286 4287 4288 4289 4290 4291 4292
          4293 4294 4295 4296 4297 4298 4299 4300 4301 4302 4303 4304
          4305 4306 4307 4308 4309 4310 4311 4312 4313 4314 4315 4316
          4317 4318 4319 4320 4321 4322 4323 4324 4325 4326 4327 4328
          4329 4330 4331 4332 4333 4334 4335 4336 4337 4338 4339 4340
          4341 4342 4343 4344 4345 4346 4347 4348 4349 4350 4351 4352
          4353 4354 4355 4356 4357 4358 4359 4360 4361 4362 4363 4364
          4365 4366 4367 4368 4369 4370 4371 4372 4373 4374 4375 4376
          4377 4378 4379 4380 4381 4382 4383 4384 4385 4386 4387 4388
          4389 4390 4391 4392 4393 4394 4395 4396 4397 4398 4399 4400
          4401 4402 4403 4404 4405 4406 4407 4408 4409 4410 4411 4412
[...]
        141     -7.2503783E-05
        142      1.3361975E-04
        143     -1.5889673E-04
        144      1.4442492E-04
        145     -1.2219563E-04
        146     -2.1623829E-04
        147     -2.7279438E-04
        148     -7.6511124E-04
        149     -2.5997942E-04
        150     -1.5013518E-03
        151     -8.6115828E-04
        152     -1.9051217E-03
        153     -2.3795241E-03
        154     -1.5433147E-03
        155     -1.3717007E-03
        156     -1.1724770E-03
        157     -4.0416144E-04
        158     -8.2095967E-05
        159     -1.6857639E-04
        160     -1.3511405E-04
        161      4.7739088E-05
        162      8.6682474E-05
        163     -1.7385655E-05
        164      2.0407016E-05
        165     -2.4830749E-05
        166     -1.0919904E-04
        167      3.1428319E-05
        168     -6.5458567E-04
        169     -6.2606174E-04
        170     -9.8516996E-04
        171     -6.7735423E-04
        172     -6.6442221E-04
        173     -7.1366742E-04
        174     -2.9290470E-03
        175     -3.2937331E-03
        176      1.1206984E-03
        177     -1.0966578E-03
        178      1.1963281E-03
        179     -5.5262105E-04
        180      9.6931855E-04
        190     -5.7868511E-04
        191     -7.5026395E-04
        192     -5.6226653E-04
        193     -1.1665156E-03
        194     -7.2809491E-04
        195     -5.0045487E-04
        196      9.1845540E-05
        289     -1.4340757E-03
        290     -4.7556614E-04
        291     -8.0367343E-05
        292     -1.2510354E-04
        293     -6.2314607E-06
        294     -1.6409653E-04
        295     -4.5113005E-05
        296      1.9827787E-04
        297      1.7769932E-04
        298     -8.1874837E-05
        299      6.5161996E-05
        300     -4.2546819E-05
        301     -8.3880323E-04
        302     -9.4612673E-04
        303     -8.8955889E-04
        304     -1.0778964E-03
        305     -9.6238282E-04
        306     -1.6566537E-03
        307     -2.2096600E-03
        308     -1.5409616E-03
        309     -7.9958439E-04
        310     -1.6479837E-03
        311     -5.4572582E-05
        312     -3.9312641E-04
        313     -5.6996980E-05
        314     -1.6998312E-04
        315      1.2048794E-04
        316     -1.0603821E-05
        317      3.4101670E-05
        318      6.5219414E-05
        319     -6.5120507E-05
        320     -6.3673590E-05
        321      1.6542771E-04
        322     -4.2641725E-04
        323     -5.9543211E-04
        324     -8.5044170E-04
        325     -9.2084184E-04
        326     -3.3195564E-04
        327     -2.7362308E-03
        328     -1.6113894E-03
        329     -1.1107941E-03
        330     -2.9475123E-03
        331     -2.5681388E-04
        332     -1.9417943E-03
        333      2.8059932E-04
        334     -2.0501946E-04
        335     -1.4243190E-04
        336     -5.9931226E-05
        337      3.5289522E-05
        338      1.4863706E-05
        339      3.3733121E-05
        340     -7.6435043E-05
        341      2.2378134E-04
        342     -2.0428437E-04
        343      7.0161722E-05
        344     -3.2818111E-04
        345     -4.6148613E-04
        346     -1.0876667E-03
        347     -2.6519780E-04
        348     -1.1055922E-03
        349     -1.9341510E-03
        350     -2.2177862E-03
        351     -1.5179006E-03
        352     -1.7335868E-03
        353     -1.7139097E-03
        354     -7.4986362E-04
        355      1.2213864E-04
        356     -8.0529701E-05
        357     -1.5531560E-04
        358     -1.5342139E-04
        359      1.1410385E-05
        360      1.0020597E-04
        361     -3.0918465E-05
        362      7.8119911E-05
        363     -2.3093448E-05
        364     -1.2075336E-04
        365     -1.2119864E-04
        366      9.9732691E-06
        367     -7.9517292E-04
        368     -8.6298403E-04
        369     -3.2272817E-04
        370     -8.3993741E-04
        371     -1.5982353E-03
        372     -2.3804476E-03
        373      1.4462800E-04
        374     -3.0229760E-03
        375      2.9017334E-04
        376      1.0812219E-03
        377     -1.0155162E-03
        378      1.1785537E-03
        388     -1.4281695E-04
        389     -5.4615454E-04
        390     -6.1916913E-04
        391     -6.4662008E-04
        392     -7.1900779E-04
        393     -9.1289353E-04
        394     -2.2651007E-04
        859      5.4177190E-04
        860     -1.9093246E-04
        861     -9.0672976E-06
        862      3.0628227E-04
        863      2.1104787E-05
        864     -3.6007723E-03
        865     -3.2505157E-03
        866     -3.2161707E-03
        867     -3.2612134E-03
        868     -3.7985168E-03
        869      7.0739984E-05
        870     -6.4827216E-04
        871     -2.3864420E-04
        872     -1.8928782E-04
        873      9.2341334E-04
        874     -3.2670175E-04
        875      1.0271914E-04
        876     -5.0675527E-05
        877     -3.3234290E-04
        878     -3.6408337E-04
        879     -2.0964096E-04
        880      8.5291845E-05
        881     -6.2557538E-05
        882     -2.0499068E-04
        883     -7.1537220E-06
        884     -1.6702568E-04
        885     -1.2788227E-04
        886     -1.8288603E-04
        887     -6.4865160E-05
        888     -1.4007365E-04
        889      3.2610888E-04
        890     -1.1078464E-04
        891      1.4442013E-04
        892      1.5299120E-04
        893      2.4112945E-04
        894      2.5727413E-04
        895      1.8170553E-04
        896     -7.1905027E-05
        897      9.9883394E-05
        898      1.0796168E-04
        899      5.6173541E-05
        900      1.0425862E-04
        901      2.9026063E-04
        902      1.4316404E-04
        903     -1.8764003E-04
        904      8.0427826E-05
        905      1.8601029E-04
        906     -9.0605752E-06
        907     -4.3869985E-05
        908      2.4829028E-04
        909     -1.3355872E-04
        910      6.2567174E-05
        911     -1.5268996E-05
        912     -2.7855400E-04
        913     -3.8961830E-04
        914     -3.1253992E-04
        915     -5.5158130E-04
        916     -3.0348791E-04
        917      3.1407337E-04
        918      6.9605874E-05
        919     -7.1600112E-04
        920     -1.0721072E-03
        921     -7.1596461E-04
        922     -7.8394866E-04
        923     -5.1769262E-04
        924     -1.4417159E-03
        925     -1.2424745E-03
        926     -9.4161119E-04
        927     -1.8046969E-03
        928     -1.5945569E-03
        929     -1.5742408E-03
        930     -2.0229673E-03
        931     -2.4746112E-03
        932     -1.3726601E-03
        933     -2.4211195E-03
        934     -2.0025788E-03
        935     -2.3041022E-03
        936     -1.9682894E-03
        937     -2.4917539E-03
        938     -2.0767537E-03
        939     -3.4969753E-03
        940     -3.5511391E-03
        941     -3.1680694E-03
        942     -3.2626530E-03
        943     -3.4005763E-03
        944     -4.7765064E-03
        945     -3.2505766E-03
        946     -6.3299444E-03
        947     -4.0230443E-03
        948     -4.3154836E-03
        949     -3.3912196E-03
        950     -4.4267728E-03
        951     -3.9558995E-03
        952     -2.7261050E-03
        953     -5.2744051E-03
        954     -3.8368138E-03
        955     -3.3744874E-03
        956     -1.4767652E-03
        957     -4.6340014E-03
        958     -7.4897154E-04
        959     -1.2953844E-03
        960     -2.4392924E-03
        961     -5.7479916E-03
        962     -1.4049949E-03
        963     -2.1678235E-03
        964     -5.6728618E-04
        965     -6.8764240E-04
        966      2.7539507E-03
        967     -8.4039943E-04
        968     -2.2907849E-03
        969     -1.9253975E-03
        970     -9.6196444E-04
        971     -1.7722111E-03
        972     -2.3379745E-03
        973      1.3583159E-03
        974     -2.4459183E-04
        975      3.1918439E-04
        976      3.6139745E-04
        977     -2.4129530E-04
        978      1.6779710E-04
        979     -6.7215370E-04
        980     -2.4670414E-05
        981     -1.1656522E-03
        982     -9.9412458E-04
        983     -6.0424705E-05
        984     -2.5542499E-04
        985     -1.5450571E-04
        986     -3.6051133E-05
        987      1.5237267E-04
        988     -2.1031331E-04
        989      1.3294082E-04
        990     -6.9210660E-05
        991     -1.3837330E-04
        992     -2.8782698E-04
        993     -9.8096558E-05
        994     -1.6429727E-04
        995     -5.0696112E-06
        996      1.1224000E-04
        997      1.7422031E-04
        998     -8.4951209E-05
        999      1.4470802E-04
       1000      2.2163345E-04
       1001     -2.9707624E-06
       1002      5.2028263E-05
       1003      1.9607166E-04
       1004     -3.4357915E-05
       1005     -2.2186242E-05
       1006      1.6500504E-04
       1007      5.6736290E-05
       1008      7.4990041E-05
       1009      3.3110888E-05
       1010     -2.3232800E-04
       1011     -1.3245730E-04
       1012      1.8043868E-05
       1013     -1.5925579E-04
       1014      1.5361095E-04
       1015      3.4345582E-05
       1016     -2.9593730E-04
       1017     -3.3863600E-04
       1018     -3.5446289E-05
       1019     -4.3929772E-04
       1020     -5.7669876E-06
       1021      1.8475443E-04
       1022      1.3463822E-04
       1023     -2.7804203E-04
       1024     -2.8390051E-04
       1025     -9.2517571E-04
       1026     -9.8225168E-04
       1027     -8.1685184E-04
       1028      2.7570031E-04
       1029      8.9131506E-04
       1030     -1.2754026E-03
       1031     -1.2621517E-03
       1032     -1.5638360E-03
       1033     -1.1629593E-03
       1034     -7.1761329E-04
       1035     -1.3196248E-03
       1036     -1.5517339E-03
       1037     -2.0277503E-03
       1038     -1.1410203E-03
       1039     -3.1750710E-03
       1040     -1.7193980E-03
       1041     -4.6128014E-05
       1042     -1.5032872E-03
       1043     -1.6380254E-03
       1044     -1.3013152E-03
       1045     -3.0168315E-03
       1046     -3.4249766E-03
       1047     -2.2415990E-03
       1048     -1.5337642E-03
       1049     -3.1157233E-03
       1050     -2.2914819E-03
       1051     -3.1778262E-03
       1052     -3.2760815E-03
       1053     -3.5253289E-03
       1054     -4.3533474E-03
       1055     -4.2710777E-03
       1056     -2.9293301E-03
       1057     -5.3799792E-03
       1058     -3.4864243E-03
       1059     -2.2356570E-03
       1060     -6.2492334E-03
       1061     -6.7391670E-03
       1062     -5.2124427E-03
       1063     -6.0151209E-03
       1064     -5.5986747E-03
       1065     -4.2335582E-04
       1066     -6.5034173E-03
       1067     -2.2288067E-04
       1068     -5.1245128E-03
       1069     -4.8052462E-03
       1070     -2.9044099E-03
       1071      3.4417232E-03
       1072     -3.8169972E-03
       1073      1.1647425E-03
       1074      3.0804020E-03
       1075      5.1917708E-05
       1076     -2.0246758E-03
       1077      7.1750165E-04
       1078     -1.6307859E-03
       1079     -1.8570462E-03
       1080     -1.0650229E-03
       1081     -1.4107246E-03
       1082     -3.0441907E-03
       1083     -7.1076049E-04
       1084      1.9070363E-04
       1085      6.5546388E-04
       1086     -1.5852870E-04
       1087     -1.1630516E-04
       1088     -2.5735652E-04
       1089      1.5895886E-04
       1090     -9.8338816E-04
       1091     -9.8498084E-04
       1092     -1.1837169E-03
       1093     -6.8318270E-04
       1094      3.1614468E-05
       1095     -7.6583843E-05
       1096      1.9534844E-04
       1097      2.5481895E-04
       1098     -1.2804430E-04
       1099     -8.5605996E-05
       1100     -1.5176500E-04
       1101     -2.0452441E-04
       1102     -2.4401249E-04
       1103     -1.3995837E-04
       1104      8.0156796E-05
       1105      1.6542520E-04
       1106      1.3359045E-04
       1107      1.9359786E-04
       1108      1.1055784E-04
       1109     -5.6837998E-05
       1110     -3.1924535E-05
       1111      3.1618196E-05
       1112      3.8738260E-05
       1113      7.7942509E-06
       1114     -8.4255542E-05
       1115      1.2983500E-04
       1116     -1.1514608E-06
       1117      4.4387009E-05
       1118      2.3597374E-04
       1119      1.1775577E-04
       1120     -4.0235583E-04
       1121      1.5679352E-04
       1122     -6.6788143E-07
       1123     -3.9404351E-04
       1124     -2.4501666E-06
       1125      4.5462326E-04
       1126     -1.4144889E-04
       1127     -1.2713488E-04
       1128      4.4084018E-04
       1129     -7.1078646E-04
       1130     -3.0737398E-04
       1131     -3.9439191E-04
       1132     -4.5379358E-04
       1133     -3.4378833E-04
       1134      5.9009398E-04
       1135     -5.4472525E-04
       1136     -8.6200466E-05
       1137     -5.5382359E-04
       1138     -2.7523867E-04
       1139     -9.1985275E-04
       1140     -6.1346777E-04
       1141     -1.3138742E-03
       1142     -7.7015124E-04
       1143     -3.0519060E-03
       1144      1.4463084E-03
       1145     -1.2549378E-03
       1146     -3.1558561E-04
       1147     -1.0267607E-03
       1148     -7.9578273E-04
       1149     -1.9033074E-03
       1150     -2.9641807E-03
       1151     -1.1691773E-03
       1152     -2.5456115E-03
       1153     -2.1053685E-03
       1154     -1.9633198E-03
       1155     -2.1804014E-03
       1156     -3.1506424E-03
       1157     -2.2797565E-03
       1158     -2.1307606E-03
       1159     -2.5331233E-03
       1160     -1.1971812E-03
       1161     -2.7915430E-03
       1162     -2.0956698E-03
       1163     -2.2702704E-03
       1164     -5.4533544E-03
       1165     -8.0295578E-03
       1166     -6.3022369E-03
       1167     -5.2925201E-03
       1168     -4.3730273E-03
       1169     -3.2217192E-03
       1170     -4.5001713E-03
       1171     -5.6722500E-03
       1172     -4.8842938E-03
       1173     -6.0734265E-03
       1174     -6.0335483E-03
       1175     -9.1869496E-04
       1176      8.9950697E-04
       1177     -2.0820670E-03
       1178     -1.4507641E-03
       1179     -4.4595010E-04
       1180     -4.9792574E-03
       1181     -7.8418574E-03
       1182     -3.0681811E-03
       1183     -1.9288674E-03
       1184      2.3558608E-04
       1185      2.7981541E-03
       1186      4.0062831E-03
       1187     -5.5932151E-04
       1188     -6.4831110E-04
       1189     -1.1714472E-03
       1190     -1.1528544E-03
       1191     -2.4534344E-03
       1192      3.9724619E-04
       1193     -3.5238480E-04
       1194     -3.7154028E-04
       1195     -5.5557141E-04
       1196     -5.2670433E-04
       1197     -4.4013132E-04
       1198     -1.8041692E-04
       1199     -2.3175069E-04
       1200      4.7756228E-05
       1201     -5.6644307E-04
       1202     -2.3714567E-04
       1203      1.6629622E-04
       1204     -7.4806410E-05
       1205      8.7441059E-05
       1206      3.8154195E-04
       1207      2.0843301E-05
       1208     -4.2331336E-04
       1209      2.7124368E-04
       1210      2.8151696E-05
       1211     -1.9233585E-04
       1212      3.0913800E-05
       1213      2.1611747E-04
       1214     -8.1387890E-05
       1215     -2.5477453E-04
       1216      1.4335863E-04
       1217     -2.2787706E-04
       1218     -7.2655504E-05
       1219      2.2866671E-04
       1220      3.3661863E-04
       1221      1.1293428E-04
       1222      1.7444988E-04
       1223      3.1055737E-04
       1224     -2.2676645E-04
       1225     -7.7125570E-05
       1226     -2.2721012E-04
       1227      2.3038168E-05
       1228     -1.3405809E-04
       1229      1.7152745E-04
       1230      1.3372270E-04
       1231      5.5718543E-05
       1232     -1.3163541E-04
       1233      9.8310702E-05
       1234     -3.0372760E-04
       1235     -3.1148573E-04
       1236      2.7188564E-04
       1237      1.8514492E-04
       1238     -3.2125508E-04
       1239      4.4256267E-04
       1240      4.6539937E-04
       1241     -7.5710496E-04
       1242     -2.1014687E-04
       1243      9.0455565E-04
       1244     -7.1005110E-04
       1245     -5.3076176E-04
       1246      1.6623838E-04
       1247     -3.2593884E-04
       1248     -1.2905620E-03
       1249      2.6048235E-04
       1250     -1.7632074E-03
       1251     -2.1041078E-03
       1252     -2.5878258E-03
       1253     -7.8266724E-04
       1254     -1.7525605E-03
       1255     -1.8605213E-04
       1256      3.6855470E-04
       1257     -3.8411242E-04
       1258     -1.2249236E-03
       1259     -2.9205244E-03
       1260     -1.4366580E-03
       1261     -1.5120578E-03
       1262     -9.2759352E-04
       1263     -1.8909358E-03
       1264     -1.6345105E-03
       1265     -1.7234750E-03
       1266     -2.5810513E-03
       1267     -1.7957204E-03
       1268     -1.6530041E-03
       1269     -2.7051228E-03
       1270     -4.8579365E-03
       1271     -2.4366620E-03
       1272     -4.5488389E-03
       1273     -1.8444118E-03
       1274     -3.6901133E-03
       1275     -4.0167695E-03
       1276     -3.9945267E-03
       1277     -3.0731089E-03
       1278     -4.7189585E-03
       1279     -2.4431173E-03
       1280      6.6633240E-04
       1281      6.7466703E-05
       1282     -9.6214305E-04
       1283     -4.2869005E-03
       1284     -2.8846996E-04
       1285     -2.9385464E-03
       1286     -3.6475792E-03
       1287     -2.1865712E-03
       1288      9.3988831E-04
       1289     -2.1753776E-03
       1290     -2.8142846E-03
       1291     -4.2679424E-03
       1292     -1.1030243E-03
       1293     -2.2871420E-03
       1294     -2.8613877E-05
       1295      2.6603653E-03
       1296      4.0323149E-03
       1297      6.6959787E-04
       1298      9.8657055E-04
       1299     -1.7714273E-03
       1300     -2.2093428E-03
       1301     -2.6626258E-03
       1302     -1.6333359E-03
       1303     -2.4437092E-03
       1304      1.3169604E-03
       1305      1.7469762E-03
       1306      1.6999339E-03
       1307      1.3659844E-03
       1308      1.6512087E-03
       1354     -7.1131914E-04
       1355     -9.3358410E-04
       1356     -3.8252354E-04
       1357      2.2528531E-04
       1358      2.0921419E-04
       1359     -1.0626069E-03
       1360     -2.3877204E-04
       1361      2.0465466E-04
       1362     -3.7441646E-04
       1363      2.1893064E-06
       1364     -1.2729081E-03
       1365     -1.2846722E-04
       1366     -1.1392853E-04
       1367      3.4889954E-04
       1368     -5.4122595E-04
       1369     -4.1126813E-04
       1370      1.1174185E-03
       1371      5.1473972E-05
       1372     -7.7896669E-04
       1373     -4.3131130E-04
       1374     -1.1931259E-03
       1375     -2.9739280E-04
       1376     -1.1088919E-03
       1377     -8.8801085E-04
       1378     -8.0985870E-04
       1379     -9.0361037E-04
       1380     -1.6096953E-03
       1381      2.8259829E-04
       1382     -8.9188166E-04
       1383     -1.0172499E-03
       1384      4.5810437E-05
       1385     -1.0977081E-03
       1386     -1.3359885E-03
       1387     -1.3771676E-03
       1388     -7.8487712E-04

 MAXIMUM         4.0323E-03
 AT NODE              1296

 MINIMUM        -8.0296E-03
 AT NODE              1165


          THE ANALYSIS HAS BEEN COMPLETED



                              ANALYSIS COMPLETE
                              WITH      2 WARNING MESSAGES ON THE DAT FILE



     JOB TIME SUMMARY
       USER TIME (SEC)      =   6.7000    
       SYSTEM TIME (SEC)    =   1.5000    
       TOTAL CPU TIME (SEC) =   8.2000    
       WALLCLOCK TIME (SEC) =          4
