1

   Abaqus 2021                                  Date 22-Jun-2023   Time 21:16:10
   For use by UNIVERSITY OF MICHIGAN under license from Dassault Systemes or its subsidiary.



                         The Abaqus Software is a product of:

                           Dassault Systemes SIMULIA Corp.
                           1301 Atwood Avenue, Suite 101W
                              Johnston, RI 02919, USA
 


                   The Abaqus Software is available only under license
                   from Dassault Systemes or its subsidiary and may be
                   used or reproduced only in accordance with the terms
                   of such license.
 
                          On machine ME-ESTRADALAB04 
                          you are authorized to run
                          Abaqus/Standard until 31-Jul-2024

                          Your site id is: 200000000004058 


 
                    For assistance or any other information you may
                    obtain contact information for your local office
                    from the world wide web at:

                      http://www.3ds.com/products/simulia/locations/

 
                * * * * * * * * * * * * * * * * * * * * * * * * * * * * * * 
                *                                                         * 
                *                   *****************                     * 
                *                   *  N O T I C E  *                     * 
                *                   *****************                     * 
                *                                                         * 
                *                                                         * 
                *                       Abaqus 2021                       * 
                *                                                         * 
                *          BUILD ID: 2020_03_06-09.50.37 167380           * 
                *                                                         * 
                *                                                         * 
                *  Please make sure you are using                         * 
                *  release Abaqus 2021 manuals                            * 
                *  plus the notes accompanying this release.              * 
                *                                                         * 
                *                                                         * 
                *                                                         * 
                *                                                         * 
                *                                                         * 
                *   This program may not be used for commercial purposes  * 
                *           without payment of a commercial fee.          * 
                *                                                         * 
                * * * * * * * * * * * * * * * * * * * * * * * * * * * * * * 


 



     PROCESSING PART, INSTANCE, AND ASSEMBLY INFORMATION
   *******************************************************


     END PROCESSING PART, INSTANCE, AND ASSEMBLY INFORMATION
   ***********************************************************




     OPTIONS BEING PROCESSED
   ***************************


  *Heading
  *Node
  *Element, type=C3D10H
  *Nset, nset=ASSEMBLY_PART-1-1_SET-1
  *Elset, elset=ASSEMBLY_PART-1-1_SET-1
  *Nset, nset=ASSEMBLY_BC-SET-1
  *Nset, nset=ASSEMBLY_BC-SET-2
  *Elset, elset=ASSEMBLY_BC-SET-1
  *Elset, elset=ASSEMBLY_BC-SET-2
  *material, name=MATERIAL-1
  *hyperelastic, n=3, ogden
  *solidsection, elset=ASSEMBLY_PART-1-1_SET-1, controls=EC-1, material=MATERIAL-1
  *sectioncontrols, name=EC-1, hourglass=ENHANCED

 ***WARNING: THE PARAMETER HOURGLASS = ENHANCED ON THE SECTION CONTROLS OPTION 
             IS RELEVANT FOR THESE ELEMENTS: C3D8R, CAX4R, CGAX4R, CPEG4R, 
             CPE4R, CPS4R, M3D4R, S4R, SC8R AND THEIR HYBRID, THERMAL AND 
             PRESSURE COUNTERPARTS WHEREVER APPLICABLE. IT IS ALSO RELEVANT FOR 
             ALL TYPES OF MODIFIED TRIANGULAR AND TETRAHEDRAL ELEMENTS. THIS 
             WARNING CAN BE IGNORED IF THE FEATURE IS APPLIED TO THESE ELEMENT 
             TYPES ONLY.
  *solidsection, elset=ASSEMBLY_PART-1-1_SET-1, controls=EC-1, material=MATERIAL-1
  *boundary
  *boundary
  *boundary
  *boundary
  *output, field, variable=PRESELECT
  *output, history, variable=PRESELECT
  *output, field, variable=PRESELECT
  *output, history, variable=PRESELECT
  *output, field, variable=PRESELECT
  *output, history, variable=PRESELECT
  *Step, name=Step-1, nlgeom=YES
  *output, field, variable=PRESELECT
  *output, history, variable=PRESELECT
  *Step, name=Step-1, nlgeom=YES
  *Step, name=Step-1, nlgeom=YES
  *static
  *boundary
  *boundary
  *output, field, variable=PRESELECT
  *output, history, variable=PRESELECT
  *nodeprint
  *elprint, position=CENTROIDAL

 ***WARNING: OUTPUT REQUEST DG IS ONLY AVAILABLE FOR *HYPERELASTIC/FOAM AND 
             *USER MATERIAL.
  *elprint, elset=ASSEMBLY_BC-SET-1, position=CENTROIDAL
  *elprint, elset=ASSEMBLY_BC-SET-2, position=CENTROIDAL
  *endstep
  *Step, name=Step-1, nlgeom=YES
  *static
  *boundary
  *boundary
  *endstep

 ***NOTE: Boundary conditions are specified on inactive dof of 275 nodes. The 
          nodes have been identified in node set WarnNodeBCInactiveDof.


                              E L E M E N T,   N O D E,   A N D   S U R F A C E   M A P S


**NOTE: This section may not include complete information about
        members of sets and surfaces. Use *PREPRINT, MODEL=YES 
        in order to get the set and surface members printed    
        under the following sections:                          
            - E L E M E N T   S E T S                          
            - N O D E   S E T S                                
            - S U R F A C E   D E F I N I T I O N S .          


Assembly name: ASSEMBLY
Number of instances: 1

ASSEMBLY LEVEL
  node sets:
    BC-SET-1:
      instance name: PART-1-1
      number of nodes: 275
      nodes: 
        1 2 3 4 5 6 7 8 9 10 11 12 13 14 15 16 17 18 19 20 21 22 23 24
        25 26 53 54 61 62 63 64 65 66 67 68 69 70 71 72 73 74 75 76 77
        78 79 80 81 82 83 84 85 86 113 114 121 122 123 124 125 126 127
        128 129 130 131 132 133 134 135 136 137 138 139 140 141 142 143
        144 145 146 173 174 264 293 299 342 343 344 368 369 370 375 376
        413 424 425 426 435 437 438 439 442 443 444 446 447 448 452 456
        480 484 485 486 506 516 519 520 527 563 575 579 580 591 597 598
        613 621 623 631 632 641 643 647 650 654 655 685 687 689 692 693
        696 697 709 712 714 716 728 737 739 741 758 762 766 767 770 774
        776 784 794 797 798 799 801 802 803 804 817 820 824 825 828 830
        831 835 837 850 851 852 855 858 885 893 915 916 918 924 925 933
        934 936 963 988 1007 1011 1012 1025 1027 1028 1029 1030 1034
        1037 1041 1043 1048 1054 1063 1065 1066 1067 1076 1077 1078 1080
        1081 1088 1093 1102 1104 1105 1110 1132 1140 1146 1148 1149 1150
        1153 1154 1156 1160 1161 1163 1168 1173 1174 1190 1194 1196 1201
        1205 1210 1211 1212 1223 1227 1243 1244 1245 1247 1248 1252 1253
        1254 1255 1256 1257 1258 1261 1262 1263 1267 1271 1275 1276 1282
        1283 1285 1286 1287 1288 1289

    BC-SET-2:
      instance name: PART-1-1
      number of nodes: 275
      nodes: 
        27 28 29 30 31 32 33 34 35 36 37 38 39 40 41 42 43 44 45 46 47
        48 49 50 51 52 57 58 87 88 89 90 91 92 93 94 95 96 97 98 99 100
        101 102 103 104 105 106 107 108 109 110 111 112 117 118 147 148
        149 150 151 152 153 154 155 156 157 158 159 160 161 162 163 164
        165 166 167 168 169 170 171 172 177 178 242 244 246 247 248 249
        253 257 258 269 285 287 288 306 307 308 329 335 373 384 388 389
        391 396 399 400 408 474 500 503 504 524 529 531 532 533 535 536
        539 540 541 546 560 562 581 582 583 602 604 626 627 629 633 636
        645 664 680 690 691 698 700 704 708 731 732 734 746 747 750 751
        754 755 760 777 778 781 782 788 792 793 806 807 810 811 812 814
        826 833 834 845 853 861 863 864 865 867 874 875 878 888 902 905
        928 929 939 942 946 948 950 953 954 956 957 969 971 972 974 978
        980 981 983 984 990 991 993 997 998 999 1015 1022 1040 1059 1060
        1068 1070 1072 1074 1089 1091 1096 1097 1106 1107 1108 1111 1112
        1113 1115 1124 1126 1128 1134 1136 1141 1142 1143 1144 1165 1166
        1169 1170 1171 1179 1180 1181 1188 1193 1200 1203 1204 1206 1208
        1215 1216 1219 1220 1221 1224 1229 1230 1231 1241 1249 1260 1272
        1278 1279 1280 1290 1292 1293

  element sets:
    BC-SET-1:
      instance name: PART-1-1
      number of elements: 271
      elements: 
        4 7 10 11 12 21 25 26 28 33 35 36 37 39 40 41 42 43 44 47 49 50
        54 56 58 70 74 76 77 80 81 85 88 89 92 96 97 99 100 102 108 109
        112 114 115 116 122 123 124 125 127 132 133 136 138 140 142 143
        144 145 149 154 155 156 157 160 163 164 166 167 169 170 172 173
        174 176 177 181 188 190 192 194 196 197 199 203 204 205 207 208
        213 214 216 219 227 232 235 236 239 240 242 243 245 249 252 256
        260 261 262 263 264 265 266 267 275 276 277 278 279 282 283 284
        287 289 293 295 296 298 299 300 301 303 304 315 316 317 320 324
        327 332 334 336 340 349 350 351 352 353 354 355 356 358 359 360
        361 362 363 364 365 367 368 369 370 371 374 375 378 379 380 381
        383 389 391 393 394 395 397 399 407 408 409 410 415 417 418 419
        423 426 428 429 430 433 434 435 436 437 438 439 442 445 450 452
        454 456 458 462 463 465 468 469 475 476 477 478 481 483 485 486
        489 491 493 494 495 496 498 499 500 501 503 504 506 507 508 509
        510 512 513 515 516 521 522 524 527 532 534 535 536 539 543 544
        545 549 550 551 552 553 555 563 565 570 571 572 574 575 576 577
        578 587 588 590 591

    BC-SET-2:
      instance name: PART-1-1
      number of elements: 274
      elements: 
        1 2 3 5 6 8 9 13 14 16 17 18 19 20 22 23 24 27 29 30 31 32 34 38
        45 48 52 53 57 60 61 62 63 64 67 68 69 71 73 75 78 79 82 83 87
        90 91 93 94 95 98 103 104 105 106 107 110 111 113 117 119 121
        126 128 129 130 131 134 135 137 139 141 146 147 148 150 151 152
        153 158 159 161 162 165 168 171 175 178 179 180 182 184 185 186
        187 189 191 193 195 198 201 202 206 209 211 212 217 218 220 221
        222 223 225 228 230 231 233 234 238 239 241 244 246 247 250 254
        259 268 269 270 271 272 273 274 280 281 285 286 288 289 290 291
        292 294 297 302 305 306 307 308 309 311 312 313 314 318 319 321
        322 323 325 326 328 329 330 331 335 337 338 341 342 343 344 345
        346 347 348 352 357 366 373 376 377 382 384 385 386 387 388 392
        396 398 401 402 405 406 411 412 413 414 416 420 421 422 424 425
        427 431 432 440 441 443 449 450 451 453 455 457 459 460 461 464
        466 467 470 472 473 474 480 482 484 487 488 490 492 497 502 514
        517 518 519 525 528 530 531 537 538 540 541 542 546 547 548 554
        556 557 559 560 561 562 564 566 567 568 569 579 580 581 582 585
        586 592 593 594

  Surfaces:

INSTANCE LEVEL
  node sets:
    Instance name: PART-1-1
      node set name: SET-1
        number of nodes: 1293
        nodes: 
          1 2 3 4 5 6 7 8 9 10 11 12 13 14 15 16 17 18 19 20 21 22 23 24
          25 26 27 28 29 30 31 32 33 34 35 36 37 38 39 40 41 42 43 44 45
          46 47 48 49 50 51 52 53 54 55 56 57 58 59 60 61 62 63 64 65 66
          67 68 69 70 71 72 73 74 75 76 77 78 79 80 81 82 83 84 85 86 87
          88 89 90 91 92 93 94 95 96 97 98 99 100 101 102 103 104 105
          106 107 108 109 110 111 112 113 114 115 116 117 118 119 120
          121 122 123 124 125 126 127 128 129 130 131 132 133 134 135
          136 137 138 139 140 141 142 143 144 145 146 147 148 149 150
          151 152 153 154 155 156 157 158 159 160 161 162 163 164 165
          166 167 168 169 170 171 172 173 174 175 176 177 178 179 180
          181 182 183 184 185 186 187 188 189 190 191 192 193 194 195
          196 197 198 199 200 201 202 203 204 205 206 207 208 209 210
          211 212 213 214 215 216 217 218 219 220 221 222 223 224 225
          226 227 228 229 230 231 232 233 234 235 236 237 238 239 240
          241 242 243 244 245 246 247 248 249 250 251 252 253 254 255
          256 257 258 259 260 261 262 263 264 265 266 267 268 269 270
          271 272 273 274 275 276 277 278 279 280 281 282 283 284 285
          286 287 288 289 290 291 292 293 294 295 296 297 298 299 300
          301 302 303 304 305 306 307 308 309 310 311 312 313 314 315
          316 317 318 319 320 321 322 323 324 325 326 327 328 329 330
          331 332 333 334 335 336 337 338 339 340 341 342 343 344 345
          346 347 348 349 350 351 352 353 354 355 356 357 358 359 360
          361 362 363 364 365 366 367 368 369 370 371 372 373 374 375
          376 377 378 379 380 381 382 383 384 385 386 387 388 389 390
          391 392 393 394 395 396 397 398 399 400 401 402 403 404 405
          406 407 408 409 410 411 412 413 414 415 416 417 418 419 420
          421 422 423 424 425 426 427 428 429 430 431 432 433 434 435
          436 437 438 439 440 441 442 443 444 445 446 447 448 449 450
          451 452 453 454 455 456 457 458 459 460 461 462 463 464 465
          466 467 468 469 470 471 472 473 474 475 476 477 478 479 480
          481 482 483 484 485 486 487 488 489 490 491 492 493 494 495
          496 497 498 499 500 501 502 503 504 505 506 507 508 509 510
          511 512 513 514 515 516 517 518 519 520 521 522 523 524 525
          526 527 528 529 530 531 532 533 534 535 536 537 538 539 540
          541 542 543 544 545 546 547 548 549 550 551 552 553 554 555
          556 557 558 559 560 561 562 563 564 565 566 567 568 569 570
          571 572 573 574 575 576 577 578 579 580 581 582 583 584 585
          586 587 588 589 590 591 592 593 594 595 596 597 598 599 600
          601 602 603 604 605 606 607 608 609 610 611 612 613 614 615
          616 617 618 619 620 621 622 623 624 625 626 627 628 629 630
          631 632 633 634 635 636 637 638 639 640 641 642 643 644 645
          646 647 648 649 650 651 652 653 654 655 656 657 658 659 660
          661 662 663 664 665 666 667 668 669 670 671 672 673 674 675
          676 677 678 679 680 681 682 683 684 685 686 687 688 689 690
          691 692 693 694 695 696 697 698 699 700 701 702 703 704 705
          706 707 708 709 710 711 712 713 714 715 716 717 718 719 720
          721 722 723 724 725 726 727 728 729 730 731 732 733 734 735
          736 737 738 739 740 741 742 743 744 745 746 747 748 749 750
          751 752 753 754 755 756 757 758 759 760 761 762 763 764 765
          766 767 768 769 770 771 772 773 774 775 776 777 778 779 780
          781 782 783 784 785 786 787 788 789 790 791 792 793 794 795
          796 797 798 799 800 801 802 803 804 805 806 807 808 809 810
          811 812 813 814 815 816 817 818 819 820 821 822 823 824 825
          826 827 828 829 830 831 832 833 834 835 836 837 838 839 840
          841 842 843 844 845 846 847 848 849 850 851 852 853 854 855
          856 857 858 859 860 861 862 863 864 865 866 867 868 869 870
          871 872 873 874 875 876 877 878 879 880 881 882 883 884 885
          886 887 888 889 890 891 892 893 894 895 896 897 898 899 900
          901 902 903 904 905 906 907 908 909 910 911 912 913 914 915
          916 917 918 919 920 921 922 923 924 925 926 927 928 929 930
          931 932 933 934 935 936 937 938 939 940 941 942 943 944 945
          946 947 948 949 950 951 952 953 954 955 956 957 958 959 960
          961 962 963 964 965 966 967 968 969 970 971 972 973 974 975
          976 977 978 979 980 981 982 983 984 985 986 987 988 989 990
          991 992 993 994 995 996 997 998 999 1000 1001 1002 1003 1004
          1005 1006 1007 1008 1009 1010 1011 1012 1013 1014 1015 1016
          1017 1018 1019 1020 1021 1022 1023 1024 1025 1026 1027 1028
          1029 1030 1031 1032 1033 1034 1035 1036 1037 1038 1039 1040
          1041 1042 1043 1044 1045 1046 1047 1048 1049 1050 1051 1052
          1053 1054 1055 1056 1057 1058 1059 1060 1061 1062 1063 1064
          1065 1066 1067 1068 1069 1070 1071 1072 1073 1074 1075 1076
          1077 1078 1079 1080 1081 1082 1083 1084 1085 1086 1087 1088
          1089 1090 1091 1092 1093 1094 1095 1096 1097 1098 1099 1100
          1101 1102 1103 1104 1105 1106 1107 1108 1109 1110 1111 1112
          1113 1114 1115 1116 1117 1118 1119 1120 1121 1122 1123 1124
          1125 1126 1127 1128 1129 1130 1131 1132 1133 1134 1135 1136
          1137 1138 1139 1140 1141 1142 1143 1144 1145 1146 1147 1148
          1149 1150 1151 1152 1153 1154 1155 1156 1157 1158 1159 1160
          1161 1162 1163 1164 1165 1166 1167 1168 1169 1170 1171 1172
          1173 1174 1175 1176 1177 1178 1179 1180 1181 1182 1183 1184
          1185 1186 1187 1188 1189 1190 1191 1192 1193 1194 1195 1196
          1197 1198 1199 1200 1201 1202 1203 1204 1205 1206 1207 1208
          1209 1210 1211 1212 1213 1214 1215 1216 1217 1218 1219 1220
          1221 1222 1223 1224 1225 1226 1227 1228 1229 1230 1231 1232
          1233 1234 1235 1236 1237 1238 1239 1240 1241 1242 1243 1244
          1245 1246 1247 1248 1249 1250 1251 1252 1253 1254 1255 1256
          1257 1258 1259 1260 1261 1262 1263 1264 1265 1266 1267 1268
          1269 1270 1271 1272 1273 1274 1275 1276 1277 1278 1279 1280
          1281 1282 1283 1284 1285 1286 1287 1288 1289 1290 1291 1292
          1293

  element sets:
    Instance name: PART-1-1
      element set name: SET-1
        number of elements: 594
        elements: 
          1 2 3 4 5 6 7 8 9 10 11 12 13 14 15 16 17 18 19 20 21 22 23 24
          25 26 27 28 29 30 31 32 33 34 35 36 37 38 39 40 41 42 43 44 45
          46 47 48 49 50 51 52 53 54 55 56 57 58 59 60 61 62 63 64 65 66
          67 68 69 70 71 72 73 74 75 76 77 78 79 80 81 82 83 84 85 86 87
          88 89 90 91 92 93 94 95 96 97 98 99 100 101 102 103 104 105
          106 107 108 109 110 111 112 113 114 115 116 117 118 119 120
          121 122 123 124 125 126 127 128 129 130 131 132 133 134 135
          136 137 138 139 140 141 142 143 144 145 146 147 148 149 150
          151 152 153 154 155 156 157 158 159 160 161 162 163 164 165
          166 167 168 169 170 171 172 173 174 175 176 177 178 179 180
          181 182 183 184 185 186 187 188 189 190 191 192 193 194 195
          196 197 198 199 200 201 202 203 204 205 206 207 208 209 210
          211 212 213 214 215 216 217 218 219 220 221 222 223 224 225
          226 227 228 229 230 231 232 233 234 235 236 237 238 239 240
          241 242 243 244 245 246 247 248 249 250 251 252 253 254 255
          256 257 258 259 260 261 262 263 264 265 266 267 268 269 270
          271 272 273 274 275 276 277 278 279 280 281 282 283 284 285
          286 287 288 289 290 291 292 293 294 295 296 297 298 299 300
          301 302 303 304 305 306 307 308 309 310 311 312 313 314 315
          316 317 318 319 320 321 322 323 324 325 326 327 328 329 330
          331 332 333 334 335 336 337 338 339 340 341 342 343 344 345
          346 347 348 349 350 351 352 353 354 355 356 357 358 359 360
          361 362 363 364 365 366 367 368 369 370 371 372 373 374 375
          376 377 378 379 380 381 382 383 384 385 386 387 388 389 390
          391 392 393 394 395 396 397 398 399 400 401 402 403 404 405
          406 407 408 409 410 411 412 413 414 415 416 417 418 419 420
          421 422 423 424 425 426 427 428 429 430 431 432 433 434 435
          436 437 438 439 440 441 442 443 444 445 446 447 448 449 450
          451 452 453 454 455 456 457 458 459 460 461 462 463 464 465
          466 467 468 469 470 471 472 473 474 475 476 477 478 479 480
          481 482 483 484 485 486 487 488 489 490 491 492 493 494 495
          496 497 498 499 500 501 502 503 504 505 506 507 508 509 510
          511 512 513 514 515 516 517 518 519 520 521 522 523 524 525
          526 527 528 529 530 531 532 533 534 535 536 537 538 539 540
          541 542 543 544 545 546 547 548 549 550 551 552 553 554 555
          556 557 558 559 560 561 562 563 564 565 566 567 568 569 570
          571 572 573 574 575 576 577 578 579 580 581 582 583 584 585
          586 587 588 589 590 591 592 593 594

  Surfaces:

GLOBAL TO LOCAL NODE AND ELEMENT MAPS
  Global     Local      
  node       node       
  number     number     
                        Instance name                                   
   1          1         PART-1-1                                        
   2          2         PART-1-1                                        
   3          3         PART-1-1                                        
   4          4         PART-1-1                                        
   5          5         PART-1-1                                        
   6          6         PART-1-1                                        
   7          7         PART-1-1                                        
   8          8         PART-1-1                                        
   9          9         PART-1-1                                        
   10         10        PART-1-1                                        
   11         11        PART-1-1                                        
   12         12        PART-1-1                                        
   13         13        PART-1-1                                        
   14         14        PART-1-1                                        
   15         15        PART-1-1                                        
   16         16        PART-1-1                                        
   17         17        PART-1-1                                        
   18         18        PART-1-1                                        
   19         19        PART-1-1                                        
   20         20        PART-1-1                                        
   21         21        PART-1-1                                        
   22         22        PART-1-1                                        
   23         23        PART-1-1                                        
   24         24        PART-1-1                                        
   25         25        PART-1-1                                        
   26         26        PART-1-1                                        
   27         27        PART-1-1                                        
   28         28        PART-1-1                                        
   29         29        PART-1-1                                        
   30         30        PART-1-1                                        
   31         31        PART-1-1                                        
   32         32        PART-1-1                                        
   33         33        PART-1-1                                        
   34         34        PART-1-1                                        
   35         35        PART-1-1                                        
   36         36        PART-1-1                                        
   37         37        PART-1-1                                        
   38         38        PART-1-1                                        
   39         39        PART-1-1                                        
   40         40        PART-1-1                                        
   41         41        PART-1-1                                        
   42         42        PART-1-1                                        
   43         43        PART-1-1                                        
   44         44        PART-1-1                                        
   45         45        PART-1-1                                        
   46         46        PART-1-1                                        
   47         47        PART-1-1                                        
   48         48        PART-1-1                                        
   49         49        PART-1-1                                        
   50         50        PART-1-1                                        
   51         51        PART-1-1                                        
   52         52        PART-1-1                                        
   53         53        PART-1-1                                        
   54         54        PART-1-1                                        
   55         55        PART-1-1                                        
   56         56        PART-1-1                                        
   57         57        PART-1-1                                        
   58         58        PART-1-1                                        
   59         59        PART-1-1                                        
   60         60        PART-1-1                                        
   61         61        PART-1-1                                        
   62         62        PART-1-1                                        
   63         63        PART-1-1                                        
   64         64        PART-1-1                                        
   65         65        PART-1-1                                        
   66         66        PART-1-1                                        
   67         67        PART-1-1                                        
   68         68        PART-1-1                                        
   69         69        PART-1-1                                        
   70         70        PART-1-1                                        
   71         71        PART-1-1                                        
   72         72        PART-1-1                                        
   73         73        PART-1-1                                        
   74         74        PART-1-1                                        
   75         75        PART-1-1                                        
   76         76        PART-1-1                                        
   77         77        PART-1-1                                        
   78         78        PART-1-1                                        
   79         79        PART-1-1                                        
   80         80        PART-1-1                                        
   81         81        PART-1-1                                        
   82         82        PART-1-1                                        
   83         83        PART-1-1                                        
   84         84        PART-1-1                                        
   85         85        PART-1-1                                        
   86         86        PART-1-1                                        
   87         87        PART-1-1                                        
   88         88        PART-1-1                                        
   89         89        PART-1-1                                        
   90         90        PART-1-1                                        
   91         91        PART-1-1                                        
   92         92        PART-1-1                                        
   93         93        PART-1-1                                        
   94         94        PART-1-1                                        
   95         95        PART-1-1                                        
   96         96        PART-1-1                                        
   97         97        PART-1-1                                        
   98         98        PART-1-1                                        
   99         99        PART-1-1                                        
   100        100       PART-1-1                                        
   101        101       PART-1-1                                        
   102        102       PART-1-1                                        
   103        103       PART-1-1                                        
   104        104       PART-1-1                                        
   105        105       PART-1-1                                        
   106        106       PART-1-1                                        
   107        107       PART-1-1                                        
   108        108       PART-1-1                                        
   109        109       PART-1-1                                        
   110        110       PART-1-1                                        
   111        111       PART-1-1                                        
   112        112       PART-1-1                                        
   113        113       PART-1-1                                        
   114        114       PART-1-1                                        
   115        115       PART-1-1                                        
   116        116       PART-1-1                                        
   117        117       PART-1-1                                        
   118        118       PART-1-1                                        
   119        119       PART-1-1                                        
   120        120       PART-1-1                                        
   121        121       PART-1-1                                        
   122        122       PART-1-1                                        
   123        123       PART-1-1                                        
   124        124       PART-1-1                                        
   125        125       PART-1-1                                        
   126        126       PART-1-1                                        
   127        127       PART-1-1                                        
   128        128       PART-1-1                                        
   129        129       PART-1-1                                        
   130        130       PART-1-1                                        
   131        131       PART-1-1                                        
   132        132       PART-1-1                                        
   133        133       PART-1-1                                        
   134        134       PART-1-1                                        
   135        135       PART-1-1                                        
   136        136       PART-1-1                                        
   137        137       PART-1-1                                        
   138        138       PART-1-1                                        
   139        139       PART-1-1                                        
   140        140       PART-1-1                                        
   141        141       PART-1-1                                        
   142        142       PART-1-1                                        
   143        143       PART-1-1                                        
   144        144       PART-1-1                                        
   145        145       PART-1-1                                        
   146        146       PART-1-1                                        
   147        147       PART-1-1                                        
   148        148       PART-1-1                                        
   149        149       PART-1-1                                        
   150        150       PART-1-1                                        
   151        151       PART-1-1                                        
   152        152       PART-1-1                                        
   153        153       PART-1-1                                        
   154        154       PART-1-1                                        
   155        155       PART-1-1                                        
   156        156       PART-1-1                                        
   157        157       PART-1-1                                        
   158        158       PART-1-1                                        
   159        159       PART-1-1                                        
   160        160       PART-1-1                                        
   161        161       PART-1-1                                        
   162        162       PART-1-1                                        
   163        163       PART-1-1                                        
   164        164       PART-1-1                                        
   165        165       PART-1-1                                        
   166        166       PART-1-1                                        
   167        167       PART-1-1                                        
   168        168       PART-1-1                                        
   169        169       PART-1-1                                        
   170        170       PART-1-1                                        
   171        171       PART-1-1                                        
   172        172       PART-1-1                                        
   173        173       PART-1-1                                        
   174        174       PART-1-1                                        
   175        175       PART-1-1                                        
   176        176       PART-1-1                                        
   177        177       PART-1-1                                        
   178        178       PART-1-1                                        
   179        179       PART-1-1                                        
   180        180       PART-1-1                                        
   181        181       PART-1-1                                        
   182        182       PART-1-1                                        
   183        183       PART-1-1                                        
   184        184       PART-1-1                                        
   185        185       PART-1-1                                        
   186        186       PART-1-1                                        
   187        187       PART-1-1                                        
   188        188       PART-1-1                                        
   189        189       PART-1-1                                        
   190        190       PART-1-1                                        
   191        191       PART-1-1                                        
   192        192       PART-1-1                                        
   193        193       PART-1-1                                        
   194        194       PART-1-1                                        
   195        195       PART-1-1                                        
   196        196       PART-1-1                                        
   197        197       PART-1-1                                        
   198        198       PART-1-1                                        
   199        199       PART-1-1                                        
   200        200       PART-1-1                                        
   201        201       PART-1-1                                        
   202        202       PART-1-1                                        
   203        203       PART-1-1                                        
   204        204       PART-1-1                                        
   205        205       PART-1-1                                        
   206        206       PART-1-1                                        
   207        207       PART-1-1                                        
   208        208       PART-1-1                                        
   209        209       PART-1-1                                        
   210        210       PART-1-1                                        
   211        211       PART-1-1                                        
   212        212       PART-1-1                                        
   213        213       PART-1-1                                        
   214        214       PART-1-1                                        
   215        215       PART-1-1                                        
   216        216       PART-1-1                                        
   217        217       PART-1-1                                        
   218        218       PART-1-1                                        
   219        219       PART-1-1                                        
   220        220       PART-1-1                                        
   221        221       PART-1-1                                        
   222        222       PART-1-1                                        
   223        223       PART-1-1                                        
   224        224       PART-1-1                                        
   225        225       PART-1-1                                        
   226        226       PART-1-1                                        
   227        227       PART-1-1                                        
   228        228       PART-1-1                                        
   229        229       PART-1-1                                        
   230        230       PART-1-1                                        
   231        231       PART-1-1                                        
   232        232       PART-1-1                                        
   233        233       PART-1-1                                        
   234        234       PART-1-1                                        
   235        235       PART-1-1                                        
   236        236       PART-1-1                                        
   237        237       PART-1-1                                        
   238        238       PART-1-1                                        
   239        239       PART-1-1                                        
   240        240       PART-1-1                                        
   241        241       PART-1-1                                        
   242        242       PART-1-1                                        
   243        243       PART-1-1                                        
   244        244       PART-1-1                                        
   245        245       PART-1-1                                        
   246        246       PART-1-1                                        
   247        247       PART-1-1                                        
   248        248       PART-1-1                                        
   249        249       PART-1-1                                        
   250        250       PART-1-1                                        
   251        251       PART-1-1                                        
   252        252       PART-1-1                                        
   253        253       PART-1-1                                        
   254        254       PART-1-1                                        
   255        255       PART-1-1                                        
   256        256       PART-1-1                                        
   257        257       PART-1-1                                        
   258        258       PART-1-1                                        
   259        259       PART-1-1                                        
   260        260       PART-1-1                                        
   261        261       PART-1-1                                        
   262        262       PART-1-1                                        
   263        263       PART-1-1                                        
   264        264       PART-1-1                                        
   265        265       PART-1-1                                        
   266        266       PART-1-1                                        
   267        267       PART-1-1                                        
   268        268       PART-1-1                                        
   269        269       PART-1-1                                        
   270        270       PART-1-1                                        
   271        271       PART-1-1                                        
   272        272       PART-1-1                                        
   273        273       PART-1-1                                        
   274        274       PART-1-1                                        
   275        275       PART-1-1                                        
   276        276       PART-1-1                                        
   277        277       PART-1-1                                        
   278        278       PART-1-1                                        
   279        279       PART-1-1                                        
   280        280       PART-1-1                                        
   281        281       PART-1-1                                        
   282        282       PART-1-1                                        
   283        283       PART-1-1                                        
   284        284       PART-1-1                                        
   285        285       PART-1-1                                        
   286        286       PART-1-1                                        
   287        287       PART-1-1                                        
   288        288       PART-1-1                                        
   289        289       PART-1-1                                        
   290        290       PART-1-1                                        
   291        291       PART-1-1                                        
   292        292       PART-1-1                                        
   293        293       PART-1-1                                        
   294        294       PART-1-1                                        
   295        295       PART-1-1                                        
   296        296       PART-1-1                                        
   297        297       PART-1-1                                        
   298        298       PART-1-1                                        
   299        299       PART-1-1                                        
   300        300       PART-1-1                                        
   301        301       PART-1-1                                        
   302        302       PART-1-1                                        
   303        303       PART-1-1                                        
   304        304       PART-1-1                                        
   305        305       PART-1-1                                        
   306        306       PART-1-1                                        
   307        307       PART-1-1                                        
   308        308       PART-1-1                                        
   309        309       PART-1-1                                        
   310        310       PART-1-1                                        
   311        311       PART-1-1                                        
   312        312       PART-1-1                                        
   313        313       PART-1-1                                        
   314        314       PART-1-1                                        
   315        315       PART-1-1                                        
   316        316       PART-1-1                                        
   317        317       PART-1-1                                        
   318        318       PART-1-1                                        
   319        319       PART-1-1                                        
   320        320       PART-1-1                                        
   321        321       PART-1-1                                        
   322        322       PART-1-1                                        
   323        323       PART-1-1                                        
   324        324       PART-1-1                                        
   325        325       PART-1-1                                        
   326        326       PART-1-1                                        
   327        327       PART-1-1                                        
   328        328       PART-1-1                                        
   329        329       PART-1-1                                        
   330        330       PART-1-1                                        
   331        331       PART-1-1                                        
   332        332       PART-1-1                                        
   333        333       PART-1-1                                        
   334        334       PART-1-1                                        
   335        335       PART-1-1                                        
   336        336       PART-1-1                                        
   337        337       PART-1-1                                        
   338        338       PART-1-1                                        
   339        339       PART-1-1                                        
   340        340       PART-1-1                                        
   341        341       PART-1-1                                        
   342        342       PART-1-1                                        
   343        343       PART-1-1                                        
   344        344       PART-1-1                                        
   345        345       PART-1-1                                        
   346        346       PART-1-1                                        
   347        347       PART-1-1                                        
   348        348       PART-1-1                                        
   349        349       PART-1-1                                        
   350        350       PART-1-1                                        
   351        351       PART-1-1                                        
   352        352       PART-1-1                                        
   353        353       PART-1-1                                        
   354        354       PART-1-1                                        
   355        355       PART-1-1                                        
   356        356       PART-1-1                                        
   357        357       PART-1-1                                        
   358        358       PART-1-1                                        
   359        359       PART-1-1                                        
   360        360       PART-1-1                                        
   361        361       PART-1-1                                        
   362        362       PART-1-1                                        
   363        363       PART-1-1                                        
   364        364       PART-1-1                                        
   365        365       PART-1-1                                        
   366        366       PART-1-1                                        
   367        367       PART-1-1                                        
   368        368       PART-1-1                                        
   369        369       PART-1-1                                        
   370        370       PART-1-1                                        
   371        371       PART-1-1                                        
   372        372       PART-1-1                                        
   373        373       PART-1-1                                        
   374        374       PART-1-1                                        
   375        375       PART-1-1                                        
   376        376       PART-1-1                                        
   377        377       PART-1-1                                        
   378        378       PART-1-1                                        
   379        379       PART-1-1                                        
   380        380       PART-1-1                                        
   381        381       PART-1-1                                        
   382        382       PART-1-1                                        
   383        383       PART-1-1                                        
   384        384       PART-1-1                                        
   385        385       PART-1-1                                        
   386        386       PART-1-1                                        
   387        387       PART-1-1                                        
   388        388       PART-1-1                                        
   389        389       PART-1-1                                        
   390        390       PART-1-1                                        
   391        391       PART-1-1                                        
   392        392       PART-1-1                                        
   393        393       PART-1-1                                        
   394        394       PART-1-1                                        
   395        395       PART-1-1                                        
   396        396       PART-1-1                                        
   397        397       PART-1-1                                        
   398        398       PART-1-1                                        
   399        399       PART-1-1                                        
   400        400       PART-1-1                                        
   401        401       PART-1-1                                        
   402        402       PART-1-1                                        
   403        403       PART-1-1                                        
   404        404       PART-1-1                                        
   405        405       PART-1-1                                        
   406        406       PART-1-1                                        
   407        407       PART-1-1                                        
   408        408       PART-1-1                                        
   409        409       PART-1-1                                        
   410        410       PART-1-1                                        
   411        411       PART-1-1                                        
   412        412       PART-1-1                                        
   413        413       PART-1-1                                        
   414        414       PART-1-1                                        
   415        415       PART-1-1                                        
   416        416       PART-1-1                                        
   417        417       PART-1-1                                        
   418        418       PART-1-1                                        
   419        419       PART-1-1                                        
   420        420       PART-1-1                                        
   421        421       PART-1-1                                        
   422        422       PART-1-1                                        
   423        423       PART-1-1                                        
   424        424       PART-1-1                                        
   425        425       PART-1-1                                        
   426        426       PART-1-1                                        
   427        427       PART-1-1                                        
   428        428       PART-1-1                                        
   429        429       PART-1-1                                        
   430        430       PART-1-1                                        
   431        431       PART-1-1                                        
   432        432       PART-1-1                                        
   433        433       PART-1-1                                        
   434        434       PART-1-1                                        
   435        435       PART-1-1                                        
   436        436       PART-1-1                                        
   437        437       PART-1-1                                        
   438        438       PART-1-1                                        
   439        439       PART-1-1                                        
   440        440       PART-1-1                                        
   441        441       PART-1-1                                        
   442        442       PART-1-1                                        
   443        443       PART-1-1                                        
   444        444       PART-1-1                                        
   445        445       PART-1-1                                        
   446        446       PART-1-1                                        
   447        447       PART-1-1                                        
   448        448       PART-1-1                                        
   449        449       PART-1-1                                        
   450        450       PART-1-1                                        
   451        451       PART-1-1                                        
   452        452       PART-1-1                                        
   453        453       PART-1-1                                        
   454        454       PART-1-1                                        
   455        455       PART-1-1                                        
   456        456       PART-1-1                                        
   457        457       PART-1-1                                        
   458        458       PART-1-1                                        
   459        459       PART-1-1                                        
   460        460       PART-1-1                                        
   461        461       PART-1-1                                        
   462        462       PART-1-1                                        
   463        463       PART-1-1                                        
   464        464       PART-1-1                                        
   465        465       PART-1-1                                        
   466        466       PART-1-1                                        
   467        467       PART-1-1                                        
   468        468       PART-1-1                                        
   469        469       PART-1-1                                        
   470        470       PART-1-1                                        
   471        471       PART-1-1                                        
   472        472       PART-1-1                                        
   473        473       PART-1-1                                        
   474        474       PART-1-1                                        
   475        475       PART-1-1                                        
   476        476       PART-1-1                                        
   477        477       PART-1-1                                        
   478        478       PART-1-1                                        
   479        479       PART-1-1                                        
   480        480       PART-1-1                                        
   481        481       PART-1-1                                        
   482        482       PART-1-1                                        
   483        483       PART-1-1                                        
   484        484       PART-1-1                                        
   485        485       PART-1-1                                        
   486        486       PART-1-1                                        
   487        487       PART-1-1                                        
   488        488       PART-1-1                                        
   489        489       PART-1-1                                        
   490        490       PART-1-1                                        
   491        491       PART-1-1                                        
   492        492       PART-1-1                                        
   493        493       PART-1-1                                        
   494        494       PART-1-1                                        
   495        495       PART-1-1                                        
   496        496       PART-1-1                                        
   497        497       PART-1-1                                        
   498        498       PART-1-1                                        
   499        499       PART-1-1                                        
   500        500       PART-1-1                                        
   501        501       PART-1-1                                        
   502        502       PART-1-1                                        
   503        503       PART-1-1                                        
   504        504       PART-1-1                                        
   505        505       PART-1-1                                        
   506        506       PART-1-1                                        
   507        507       PART-1-1                                        
   508        508       PART-1-1                                        
   509        509       PART-1-1                                        
   510        510       PART-1-1                                        
   511        511       PART-1-1                                        
   512        512       PART-1-1                                        
   513        513       PART-1-1                                        
   514        514       PART-1-1                                        
   515        515       PART-1-1                                        
   516        516       PART-1-1                                        
   517        517       PART-1-1                                        
   518        518       PART-1-1                                        
   519        519       PART-1-1                                        
   520        520       PART-1-1                                        
   521        521       PART-1-1                                        
   522        522       PART-1-1                                        
   523        523       PART-1-1                                        
   524        524       PART-1-1                                        
   525        525       PART-1-1                                        
   526        526       PART-1-1                                        
   527        527       PART-1-1                                        
   528        528       PART-1-1                                        
   529        529       PART-1-1                                        
   530        530       PART-1-1                                        
   531        531       PART-1-1                                        
   532        532       PART-1-1                                        
   533        533       PART-1-1                                        
   534        534       PART-1-1                                        
   535        535       PART-1-1                                        
   536        536       PART-1-1                                        
   537        537       PART-1-1                                        
   538        538       PART-1-1                                        
   539        539       PART-1-1                                        
   540        540       PART-1-1                                        
   541        541       PART-1-1                                        
   542        542       PART-1-1                                        
   543        543       PART-1-1                                        
   544        544       PART-1-1                                        
   545        545       PART-1-1                                        
   546        546       PART-1-1                                        
   547        547       PART-1-1                                        
   548        548       PART-1-1                                        
   549        549       PART-1-1                                        
   550        550       PART-1-1                                        
   551        551       PART-1-1                                        
   552        552       PART-1-1                                        
   553        553       PART-1-1                                        
   554        554       PART-1-1                                        
   555        555       PART-1-1                                        
   556        556       PART-1-1                                        
   557        557       PART-1-1                                        
   558        558       PART-1-1                                        
   559        559       PART-1-1                                        
   560        560       PART-1-1                                        
   561        561       PART-1-1                                        
   562        562       PART-1-1                                        
   563        563       PART-1-1                                        
   564        564       PART-1-1                                        
   565        565       PART-1-1                                        
   566        566       PART-1-1                                        
   567        567       PART-1-1                                        
   568        568       PART-1-1                                        
   569        569       PART-1-1                                        
   570        570       PART-1-1                                        
   571        571       PART-1-1                                        
   572        572       PART-1-1                                        
   573        573       PART-1-1                                        
   574        574       PART-1-1                                        
   575        575       PART-1-1                                        
   576        576       PART-1-1                                        
   577        577       PART-1-1                                        
   578        578       PART-1-1                                        
   579        579       PART-1-1                                        
   580        580       PART-1-1                                        
   581        581       PART-1-1                                        
   582        582       PART-1-1                                        
   583        583       PART-1-1                                        
   584        584       PART-1-1                                        
   585        585       PART-1-1                                        
   586        586       PART-1-1                                        
   587        587       PART-1-1                                        
   588        588       PART-1-1                                        
   589        589       PART-1-1                                        
   590        590       PART-1-1                                        
   591        591       PART-1-1                                        
   592        592       PART-1-1                                        
   593        593       PART-1-1                                        
   594        594       PART-1-1                                        
   595        595       PART-1-1                                        
   596        596       PART-1-1                                        
   597        597       PART-1-1                                        
   598        598       PART-1-1                                        
   599        599       PART-1-1                                        
   600        600       PART-1-1                                        
   601        601       PART-1-1                                        
   602        602       PART-1-1                                        
   603        603       PART-1-1                                        
   604        604       PART-1-1                                        
   605        605       PART-1-1                                        
   606        606       PART-1-1                                        
   607        607       PART-1-1                                        
   608        608       PART-1-1                                        
   609        609       PART-1-1                                        
   610        610       PART-1-1                                        
   611        611       PART-1-1                                        
   612        612       PART-1-1                                        
   613        613       PART-1-1                                        
   614        614       PART-1-1                                        
   615        615       PART-1-1                                        
   616        616       PART-1-1                                        
   617        617       PART-1-1                                        
   618        618       PART-1-1                                        
   619        619       PART-1-1                                        
   620        620       PART-1-1                                        
   621        621       PART-1-1                                        
   622        622       PART-1-1                                        
   623        623       PART-1-1                                        
   624        624       PART-1-1                                        
   625        625       PART-1-1                                        
   626        626       PART-1-1                                        
   627        627       PART-1-1                                        
   628        628       PART-1-1                                        
   629        629       PART-1-1                                        
   630        630       PART-1-1                                        
   631        631       PART-1-1                                        
   632        632       PART-1-1                                        
   633        633       PART-1-1                                        
   634        634       PART-1-1                                        
   635        635       PART-1-1                                        
   636        636       PART-1-1                                        
   637        637       PART-1-1                                        
   638        638       PART-1-1                                        
   639        639       PART-1-1                                        
   640        640       PART-1-1                                        
   641        641       PART-1-1                                        
   642        642       PART-1-1                                        
   643        643       PART-1-1                                        
   644        644       PART-1-1                                        
   645        645       PART-1-1                                        
   646        646       PART-1-1                                        
   647        647       PART-1-1                                        
   648        648       PART-1-1                                        
   649        649       PART-1-1                                        
   650        650       PART-1-1                                        
   651        651       PART-1-1                                        
   652        652       PART-1-1                                        
   653        653       PART-1-1                                        
   654        654       PART-1-1                                        
   655        655       PART-1-1                                        
   656        656       PART-1-1                                        
   657        657       PART-1-1                                        
   658        658       PART-1-1                                        
   659        659       PART-1-1                                        
   660        660       PART-1-1                                        
   661        661       PART-1-1                                        
   662        662       PART-1-1                                        
   663        663       PART-1-1                                        
   664        664       PART-1-1                                        
   665        665       PART-1-1                                        
   666        666       PART-1-1                                        
   667        667       PART-1-1                                        
   668        668       PART-1-1                                        
   669        669       PART-1-1                                        
   670        670       PART-1-1                                        
   671        671       PART-1-1                                        
   672        672       PART-1-1                                        
   673        673       PART-1-1                                        
   674        674       PART-1-1                                        
   675        675       PART-1-1                                        
   676        676       PART-1-1                                        
   677        677       PART-1-1                                        
   678        678       PART-1-1                                        
   679        679       PART-1-1                                        
   680        680       PART-1-1                                        
   681        681       PART-1-1                                        
   682        682       PART-1-1                                        
   683        683       PART-1-1                                        
   684        684       PART-1-1                                        
   685        685       PART-1-1                                        
   686        686       PART-1-1                                        
   687        687       PART-1-1                                        
   688        688       PART-1-1                                        
   689        689       PART-1-1                                        
   690        690       PART-1-1                                        
   691        691       PART-1-1                                        
   692        692       PART-1-1                                        
   693        693       PART-1-1                                        
   694        694       PART-1-1                                        
   695        695       PART-1-1                                        
   696        696       PART-1-1                                        
   697        697       PART-1-1                                        
   698        698       PART-1-1                                        
   699        699       PART-1-1                                        
   700        700       PART-1-1                                        
   701        701       PART-1-1                                        
   702        702       PART-1-1                                        
   703        703       PART-1-1                                        
   704        704       PART-1-1                                        
   705        705       PART-1-1                                        
   706        706       PART-1-1                                        
   707        707       PART-1-1                                        
   708        708       PART-1-1                                        
   709        709       PART-1-1                                        
   710        710       PART-1-1                                        
   711        711       PART-1-1                                        
   712        712       PART-1-1                                        
   713        713       PART-1-1                                        
   714        714       PART-1-1                                        
   715        715       PART-1-1                                        
   716        716       PART-1-1                                        
   717        717       PART-1-1                                        
   718        718       PART-1-1                                        
   719        719       PART-1-1                                        
   720        720       PART-1-1                                        
   721        721       PART-1-1                                        
   722        722       PART-1-1                                        
   723        723       PART-1-1                                        
   724        724       PART-1-1                                        
   725        725       PART-1-1                                        
   726        726       PART-1-1                                        
   727        727       PART-1-1                                        
   728        728       PART-1-1                                        
   729        729       PART-1-1                                        
   730        730       PART-1-1                                        
   731        731       PART-1-1                                        
   732        732       PART-1-1                                        
   733        733       PART-1-1                                        
   734        734       PART-1-1                                        
   735        735       PART-1-1                                        
   736        736       PART-1-1                                        
   737        737       PART-1-1                                        
   738        738       PART-1-1                                        
   739        739       PART-1-1                                        
   740        740       PART-1-1                                        
   741        741       PART-1-1                                        
   742        742       PART-1-1                                        
   743        743       PART-1-1                                        
   744        744       PART-1-1                                        
   745        745       PART-1-1                                        
   746        746       PART-1-1                                        
   747        747       PART-1-1                                        
   748        748       PART-1-1                                        
   749        749       PART-1-1                                        
   750        750       PART-1-1                                        
   751        751       PART-1-1                                        
   752        752       PART-1-1                                        
   753        753       PART-1-1                                        
   754        754       PART-1-1                                        
   755        755       PART-1-1                                        
   756        756       PART-1-1                                        
   757        757       PART-1-1                                        
   758        758       PART-1-1                                        
   759        759       PART-1-1                                        
   760        760       PART-1-1                                        
   761        761       PART-1-1                                        
   762        762       PART-1-1                                        
   763        763       PART-1-1                                        
   764        764       PART-1-1                                        
   765        765       PART-1-1                                        
   766        766       PART-1-1                                        
   767        767       PART-1-1                                        
   768        768       PART-1-1                                        
   769        769       PART-1-1                                        
   770        770       PART-1-1                                        
   771        771       PART-1-1                                        
   772        772       PART-1-1                                        
   773        773       PART-1-1                                        
   774        774       PART-1-1                                        
   775        775       PART-1-1                                        
   776        776       PART-1-1                                        
   777        777       PART-1-1                                        
   778        778       PART-1-1                                        
   779        779       PART-1-1                                        
   780        780       PART-1-1                                        
   781        781       PART-1-1                                        
   782        782       PART-1-1                                        
   783        783       PART-1-1                                        
   784        784       PART-1-1                                        
   785        785       PART-1-1                                        
   786        786       PART-1-1                                        
   787        787       PART-1-1                                        
   788        788       PART-1-1                                        
   789        789       PART-1-1                                        
   790        790       PART-1-1                                        
   791        791       PART-1-1                                        
   792        792       PART-1-1                                        
   793        793       PART-1-1                                        
   794        794       PART-1-1                                        
   795        795       PART-1-1                                        
   796        796       PART-1-1                                        
   797        797       PART-1-1                                        
   798        798       PART-1-1                                        
   799        799       PART-1-1                                        
   800        800       PART-1-1                                        
   801        801       PART-1-1                                        
   802        802       PART-1-1                                        
   803        803       PART-1-1                                        
   804        804       PART-1-1                                        
   805        805       PART-1-1                                        
   806        806       PART-1-1                                        
   807        807       PART-1-1                                        
   808        808       PART-1-1                                        
   809        809       PART-1-1                                        
   810        810       PART-1-1                                        
   811        811       PART-1-1                                        
   812        812       PART-1-1                                        
[...]
        884      1.1669181E+00  4.4053778E-02 -1.1663824E-02
        885      3.0000000E+00  0.0000000E+00  0.0000000E+00
        886      2.1592165E+00  4.6770845E-02 -3.1906124E-02
        887      2.3350491E+00  2.7165424E-02 -3.6685099E-02
        889      2.6262467E+00  3.8590533E-02 -5.0506572E-03
        890      2.3496858E+00  2.4423153E-02  3.7978253E-03
        891      1.8248417E+00  3.7966311E-02 -1.2013650E-02
        892      2.3633419E+00  1.3521281E-02  1.2302185E-02
        893      3.0000000E+00  0.0000000E+00  0.0000000E+00
        894      1.7701690E+00  1.2275137E-02 -1.8133519E-02
        895      2.3115630E+00 -3.5276780E-03  1.3547014E-02
        896      7.3985196E-01 -8.5432106E-02 -4.3989721E-02
        897      1.4219675E+00 -1.1101051E-01 -1.9498493E-02
        898      2.3009307E+00  4.1124206E-02  4.7211767E-03
        899      2.4363685E+00  6.9761178E-02  8.4791601E-04
        900      1.5069680E+00  7.5708058E-02  6.9222119E-03
        901      1.5297594E+00  5.3295976E-03  2.3569867E-02
        903      6.0520913E-01 -6.4862913E-02  3.0017469E-02
        904      5.1950000E-01 -8.0442116E-02  4.0018635E-03
        906      7.3479531E-01 -8.3300602E-02  1.3407249E-02
        907      8.1022736E-01 -8.4766069E-02  4.2540643E-02
        908      1.3705705E+00 -1.0624022E-01  9.8332633E-03
        909      2.5283475E+00  5.3743736E-02 -5.4471828E-02
        910      1.9779351E+00  1.1260969E-01 -8.0335822E-03
        911      2.4369798E+00  8.1378699E-02 -2.1516164E-02
        912      1.5663209E+00  1.1179570E-01 -6.0720584E-03
        913      2.1956850E+00  7.3636027E-02 -4.1790898E-02
        914      1.7831094E+00  1.1813342E-01 -1.9914937E-02
        915      3.0000000E+00  0.0000000E+00  0.0000000E+00
        916      3.0000000E+00  0.0000000E+00  0.0000000E+00
        917      2.6373692E+00  2.6183768E-02  1.1891440E-02
        918      3.0000000E+00  0.0000000E+00  0.0000000E+00
        919      1.5853592E+00 -1.8209534E-02  2.2712239E-02
        920      9.1113135E-01  1.7112478E-02  2.3840121E-02
        921      6.9722813E-01  2.7948674E-02  2.9237585E-02
        922      1.4117728E+00 -1.2260519E-02  3.6166879E-02
        923      2.5479852E+00  7.5735789E-02 -2.3684743E-03
        924      3.0000000E+00  0.0000000E+00  0.0000000E+00
        925      3.0000000E+00  0.0000000E+00  0.0000000E+00
        926      1.3450244E+00 -6.1041525E-01 -5.7434014E-02
        927      7.5319568E-01  1.7071047E-01  4.9034996E-02
        930      2.3186038E+00 -1.8659335E-02  4.1767987E-02
        931      1.9497544E+00 -8.6231630E-03  2.0163861E-02
        932      2.7724422E+00 -3.6010910E-02  7.2076684E-02
        933      3.0000000E+00  0.0000000E+00  0.0000000E+00
        934      3.0000000E+00  0.0000000E+00  0.0000000E+00
        935      2.3213944E+00  1.0271317E-02 -9.1961502E-02
        936      3.0000000E+00  0.0000000E+00  0.0000000E+00
        937      9.7774202E-01  8.1084030E-02  2.7122737E-04
        938      9.4015123E-01  4.8245157E-02  5.3425752E-03
        940      7.9228273E-01  3.6869653E-02  2.9917622E-02
        941      1.6880979E+00  5.7890063E-02  4.4017722E-02
        943      9.6240636E-01  7.0680496E-02 -1.0856034E-03
        944      6.7506113E-01  8.6753439E-02 -8.1269036E-03
        945      7.4161346E-01  9.0399344E-02 -1.3983399E-02
        947      7.5481468E-01  8.1546090E-02  1.7090022E-02
        949      6.9168178E-01  7.4120752E-02  3.5467704E-02
        951      7.1331322E-01 -7.8652599E-02  5.0078453E-02
        952      7.7596012E-01  2.5418727E-02 -1.8299771E-02
        955      8.2315657E-01  9.9852470E-03 -5.9207511E-02
        958      1.9197945E+00  2.1908172E-02  1.4563593E-02
        959      1.4347348E+00  8.9067449E-02 -1.0547169E-02
        960      2.1388114E+00 -1.7521597E-02  2.9962318E-02
        961      2.1782343E+00 -3.1298252E-02  1.9305311E-02
        962      1.4915259E+00 -3.7249112E-02  1.8856876E-02
        963      3.0000000E+00  0.0000000E+00  0.0000000E+00
        964      5.8517301E-01  8.0195936E-02  2.0853514E-03
        965      7.2052416E-01  1.8353878E-01  1.4944343E-01
        966      1.2088082E+00  8.9674370E-02  6.1022827E-02
        967      1.4956409E+00  1.4217919E-01  9.5275059E-02
        968      1.0716907E+00  4.1955825E-01  8.2916695E-02
        970      3.8723781E-01 -3.5953769E-02  2.4935120E-02
        973      4.5027398E-01 -5.9288395E-02  2.9364063E-02
        975      2.2598298E+00 -7.5777877E-02 -3.8578680E-02
        976      1.2891434E+00 -2.6125581E-02  2.5017270E-03
        977      3.4364499E-01 -4.0488048E-02 -3.7323524E-03
        979      4.1284589E-01 -2.6495618E-02  3.5474659E-03
        982      6.4299313E-01 -4.6259237E-02  3.5838410E-02
        985      2.3646867E+00  4.0755305E-02 -1.3138975E-02
        986      1.5405392E+00 -3.1304316E-02  2.4675220E-03
        987      2.2887437E+00 -2.6957764E-02  3.4482741E-02
        988      3.0000000E+00  0.0000000E+00  0.0000000E+00
        989      4.2869605E-01 -1.2240773E-01  3.9164144E-02
        992      3.0636147E-01 -3.4621353E-01  1.3992312E-01
        994      2.0557606E+00 -4.6451399E-02  3.1085049E-03
        995      8.1002265E-01 -3.0409401E-03  8.0762973E-03
        996      3.2688816E-01 -2.7841205E-02 -6.2833070E-04
       1000      6.3627181E-01  6.7067304E-02  3.1255783E-02
       1001      6.3901507E-01  8.3146364E-02 -1.4466375E-02
       1002      1.4955517E+00  4.1288149E-03 -1.1828405E-02
       1003      2.0225441E+00 -2.1357739E-02 -9.5406148E-03
       1004      2.1971280E+00 -9.7924490E-03 -2.6199333E-02
       1005      1.5226869E+00 -5.6944629E-02 -2.3429706E-02
       1006      2.3851853E+00  9.0374047E-02 -2.2781710E-02
       1007      3.0000000E+00  0.0000000E+00  0.0000000E+00
       1008      1.3360020E+00  1.1792113E-01 -1.2203106E-02
       1009      1.9929144E+00  1.0399741E-01  8.8073958E-03
       1010      1.5702219E+00  7.3924266E-02 -1.5040988E-02
       1011      3.0000000E+00  0.0000000E+00  0.0000000E+00
       1012      3.0000000E+00  0.0000000E+00  0.0000000E+00
       1013      1.0996269E+00  9.2499525E-02  4.4006631E-02
       1014      1.6172235E+00  9.7948294E-02  3.1183747E-03
       1016      1.8034767E+00  1.0325368E-01  1.0335642E-03
       1017      1.1359021E+00 -9.1457759E-02  5.1066951E-03
       1018      1.8915291E+00 -1.0394161E-01 -3.5732788E-02
       1019      1.1314272E+00 -9.3479804E-02  1.3445382E-02
       1020      1.6784081E+00 -7.5686379E-02  2.8557739E-03
       1021      6.5751868E-01  5.9350975E-02 -4.1862865E-03
       1023      3.4526104E-01  6.0582493E-02 -2.1529485E-02
       1024      2.2855587E+00  8.0637820E-02 -3.7730411E-02
       1025      3.0000000E+00  0.0000000E+00  0.0000000E+00
       1026      2.2784505E+00  9.4629061E-02  2.5346699E-03
       1027      3.0000000E+00  0.0000000E+00  0.0000000E+00
       1028      3.0000000E+00  0.0000000E+00  0.0000000E+00
       1029      3.0000000E+00  0.0000000E+00  0.0000000E+00
       1030      3.0000000E+00  0.0000000E+00  0.0000000E+00
       1031      2.1406102E+00  2.2632990E-02 -4.1229828E-02
       1032      2.1847344E+00 -4.7656169E-02 -1.4629311E-02
       1033      2.3033395E+00  4.6948858E-03 -3.9659937E-02
       1034      3.0000000E+00  0.0000000E+00  0.0000000E+00
       1035      2.2000049E+00 -7.0570883E-02 -8.4959775E-03
       1036      2.1126548E+00 -9.3582624E-02  4.0144202E-02
       1037      3.0000000E+00  0.0000000E+00  0.0000000E+00
       1038      7.9117352E-01  1.0971200E-02  3.2999260E-02
       1039      1.0844853E+00  3.3039931E-02 -3.7537515E-02
       1041      3.0000000E+00  0.0000000E+00  0.0000000E+00
       1042      2.1818000E+00 -4.2040418E-03  4.4940151E-02
       1043      3.0000000E+00  0.0000000E+00  0.0000000E+00
       1044      2.1884584E+00 -3.0723895E-03  2.1688035E-02
       1045      2.1700681E+00 -4.2997535E-02  1.4936778E-02
       1046      1.4798023E+00 -2.6417325E-02  5.2492848E-02
       1047      2.1491802E+00 -5.1717521E-02  1.7400466E-02
       1048      3.0000000E+00  0.0000000E+00  0.0000000E+00
       1049      2.2183916E+00 -6.1123819E-02  5.6045157E-03
       1050      2.1912714E+00 -8.7015630E-02  1.5345353E-03
       1051      1.4818702E+00 -1.1557994E-01  1.8817780E-02
       1052      2.1833301E+00 -9.3084892E-02 -2.5179920E-02
       1053      2.2109392E+00 -7.3788173E-02 -5.1206775E-03
       1054      3.0000000E+00  0.0000000E+00  0.0000000E+00
       1055      2.3549631E+00  7.3646872E-02 -2.0897204E-02
       1056      1.6860421E+00  7.3197463E-02 -3.8902462E-02
       1057      1.4539179E+00  6.5250000E-02 -3.9252829E-02
       1058      2.1528449E+00  6.0091202E-02 -5.4311452E-02
       1061      2.4198390E+00 -8.1499907E-03  4.3800327E-04
       1062      1.6298633E+00 -6.3853662E-02  1.6790777E-02
       1063      3.0000000E+00  0.0000000E+00  0.0000000E+00
       1064      2.2959814E+00 -8.3150105E-02 -4.9082838E-02
       1065      3.0000000E+00  0.0000000E+00  0.0000000E+00
       1066      3.0000000E+00  0.0000000E+00  0.0000000E+00
       1067      3.0000000E+00  0.0000000E+00  0.0000000E+00
       1069      8.7646996E-01  1.0139163E-01 -1.6208328E-02
       1071      1.8145433E+00 -1.8036299E-01  4.7680860E-02
       1073      7.5302619E-01  1.8969170E-02  5.4114722E-03
       1075      2.3841444E+00  3.3148949E-02  5.0843646E-02
       1076      3.0000000E+00  0.0000000E+00  0.0000000E+00
       1077      3.0000000E+00  0.0000000E+00  0.0000000E+00
       1078      3.0000000E+00  0.0000000E+00  0.0000000E+00
       1079      2.3919977E+00 -3.6695544E-01  4.0503464E-02
       1080      3.0000000E+00  0.0000000E+00  0.0000000E+00
       1081      3.0000000E+00  0.0000000E+00  0.0000000E+00
       1082      2.2837741E+00 -8.1128859E-02  1.4801645E-03
       1083      2.2859838E+00 -2.7226845E-02  9.3491652E-02
       1084      2.2064279E+00  2.0177274E-01  6.0424591E-02
       1085      1.6145868E+00  4.7219078E-02 -3.2393931E-02
       1086      2.5724230E+00  7.9933991E-02  1.1614357E-01
       1087      2.2602617E+00 -1.6672585E-03  2.8980201E-02
       1088      3.0000000E+00  0.0000000E+00  0.0000000E+00
       1090      3.3529969E-01 -3.0869467E-02 -3.2673602E-02
       1092      2.3157768E+00  1.5715171E-03  9.8075019E-02
       1093      3.0000000E+00  0.0000000E+00  0.0000000E+00
       1094      2.6668434E+00 -2.4923954E-02 -4.5754365E-03
       1095      5.7727377E-01  1.0065727E-02 -9.0762895E-04
       1098      5.7302616E-01 -7.5825420E-02  6.5421941E-03
       1099      5.5447900E-01 -8.7196825E-02 -4.3079559E-02
       1100      1.3250978E+00 -8.4790597E-02  1.8129332E-02
       1101      7.4524609E-01 -4.8803613E-02  5.8865075E-02
       1102      3.0000000E+00  0.0000000E+00  0.0000000E+00
       1103      2.3781969E+00 -2.1811044E-03  2.7829733E-02
       1104      3.0000000E+00  0.0000000E+00  0.0000000E+00
       1105      3.0000000E+00  0.0000000E+00  0.0000000E+00
       1109      3.2966272E-01 -2.2337197E-02 -1.0739268E-02
       1110      3.0000000E+00  0.0000000E+00  0.0000000E+00
       1114      6.9675062E-01 -3.2401198E-02 -4.7182708E-02
       1116      2.2051499E+00  6.7926059E-02  5.0716611E-02
       1117      1.6091738E+00  9.2879558E-02  2.1681235E-02
       1118      1.6719711E+00  1.0155145E-01  2.2465483E-02
       1119      2.2729619E+00  6.1950862E-02  5.9666222E-02
       1120      7.9656388E-01 -3.0635535E-02  5.0178004E-02
       1121      8.6443434E-01  9.0206232E-02 -9.0065945E-03
       1122      1.2735558E+00  9.6811844E-02  3.7649954E-03
       1123      4.1938941E-01  6.3540255E-02  1.6641615E-02
       1125      5.2074870E-01  6.6656936E-02 -4.3291587E-02
       1127      3.8029834E-01  1.8915884E-02  3.5614570E-02
       1129      3.6805995E-01  7.6112662E-03  2.9760051E-02
       1130      3.9235506E-01 -2.7975441E-02 -3.6686914E-03
       1131      2.3014985E+00  7.5547136E-02 -1.0730651E-02
       1132      3.0000000E+00  0.0000000E+00  0.0000000E+00
       1133      1.5582504E+00 -6.7029897E-02  2.3163252E-02
       1135      3.9079396E-01  2.6015446E-02 -4.0943023E-02
       1137      1.4549937E+00 -5.7344975E-02  1.2843768E-02
       1138      2.4634074E+00 -3.9709263E-01 -2.4060074E-01
       1139      2.3861277E+00 -3.0090830E-01 -9.6046362E-02
       1140      3.0000000E+00  0.0000000E+00  0.0000000E+00
       1145      4.5483149E-01  4.7333093E-02  4.3148659E-02
       1146      3.0000000E+00  0.0000000E+00  0.0000000E+00
       1147      2.3200152E+00 -1.0049452E-01  1.1585977E-01
       1148      3.0000000E+00  0.0000000E+00  0.0000000E+00
       1149      3.0000000E+00  0.0000000E+00  0.0000000E+00
       1150      3.0000000E+00  0.0000000E+00  0.0000000E+00
       1151      2.1694689E+00 -7.8491705E-03 -5.4543480E-02
       1152      2.6502926E+00 -1.6773778E-02  2.7345705E-02
       1153      3.0000000E+00  0.0000000E+00  0.0000000E+00
       1154      3.0000000E+00  0.0000000E+00  0.0000000E+00
       1155      2.5840014E+00 -2.9309363E-02  1.7932631E-02
       1156      3.0000000E+00  0.0000000E+00  0.0000000E+00
       1157      1.7743444E+00  1.1881189E-01  3.7522895E-03
       1158      2.2715744E+00  5.9891596E-02  1.1488557E-02
       1159      2.4880699E+00  7.7099212E-02  3.1361740E-02
       1160      3.0000000E+00  0.0000000E+00  0.0000000E+00
       1161      3.0000000E+00  0.0000000E+00  0.0000000E+00
       1162      2.6731052E+00 -1.1907320E-02 -3.0653725E-02
       1163      3.0000000E+00  0.0000000E+00  0.0000000E+00
       1164      4.3203310E-01  4.1422588E-02 -5.8805542E-02
       1167      9.1923608E-01  8.4015189E-02 -8.1243328E-03
       1168      3.0000000E+00  0.0000000E+00  0.0000000E+00
       1172      1.7823628E+00  1.1335571E-01  1.2073818E-02
       1173      3.0000000E+00  0.0000000E+00  0.0000000E+00
       1174      3.0000000E+00  0.0000000E+00  0.0000000E+00
       1175      2.4797349E+00 -2.0617193E-01  6.3564229E-02
       1176      2.4002318E+00 -3.8778363E-01  2.5502596E-01
       1177      2.3917634E+00 -3.0912833E-01  3.3493590E-02
       1178      2.0674845E+00 -5.9450358E-02 -9.4505219E-03
       1182      1.8310149E+00 -1.9750258E-01  1.8297408E-01
       1183      1.9209144E+00 -4.9880868E-01  8.7568160E-02
       1184      1.3628517E+00 -6.5051624E-01  7.1686428E-02
       1185      1.2731197E+00 -9.2116178E-02  7.2629902E-02
       1186      1.4141593E+00 -5.9352586E-01  1.5288155E-01
       1187      5.5794495E-01  3.2494870E-01 -2.6997834E-01
       1189      2.3141791E+00 -9.3279780E-03  2.5197451E-02
       1190      3.0000000E+00  0.0000000E+00  0.0000000E+00
       1191      2.4939259E+00  4.1361271E-01  1.7407666E-01
       1192      1.2372320E+00 -1.4222859E-01 -3.5948005E-02
       1194      3.0000000E+00  0.0000000E+00  0.0000000E+00
       1195      2.6365402E+00  1.4105710E-02  3.5395701E-03
       1196      3.0000000E+00  0.0000000E+00  0.0000000E+00
       1197      1.9928668E+00  3.3194953E-02 -1.8886188E-02
       1198      2.3457475E+00  6.9679906E-02 -4.9061859E-03
       1199      4.1407418E-01  4.0948902E-02  3.1943381E-02
       1201      3.0000000E+00  0.0000000E+00  0.0000000E+00
       1202      8.1195895E-01  3.6518074E-02 -6.0881561E-02
       1205      3.0000000E+00  0.0000000E+00  0.0000000E+00
       1207      5.9727037E-01  6.7507056E-02  3.3921585E-02
       1209      1.6040587E+00 -9.0907866E-02  2.0703347E-02
       1210      3.0000000E+00  0.0000000E+00  0.0000000E+00
       1211      3.0000000E+00  0.0000000E+00  0.0000000E+00
       1212      3.0000000E+00  0.0000000E+00  0.0000000E+00
       1213      1.8078477E+00  6.9313932E-02  3.6705874E-04
       1214      1.8209313E+00 -9.2373527E-02  4.0170829E-02
       1217      1.1564613E+00 -9.3111442E-02 -7.2763252E-03
       1218      1.5248966E+00  4.6348758E-01  1.0359822E-01
       1222      9.6665458E-01  8.6504116E-02  1.1786849E-02
       1223      3.0000000E+00  0.0000000E+00  0.0000000E+00
       1225      2.3839830E+00  3.0338443E-01 -1.2542388E-01
       1226      2.5467625E+00  4.7275260E-03 -6.6446805E-02
       1227      3.0000000E+00  0.0000000E+00  0.0000000E+00
       1228      2.5387174E+00  3.3938514E-01 -1.0626471E-01
       1232      2.3452637E+00  4.5947609E-02 -2.9613574E-03
       1233      1.9578038E+00  4.9720850E-01  1.4351142E-02
       1234      8.1946543E-01  7.1725265E-02  1.7996455E-02
       1235      1.5318624E+00  8.0599025E-02  4.8296338E-02
       1236      2.4290716E+00  4.0862788E-01  1.0998270E-02
       1237      2.2215009E+00 -8.1114505E-02  4.1738632E-02
       1238      2.3534988E+00  6.6260891E-02  4.5885044E-02
       1239      2.2159393E+00  1.2589250E-02  5.6568074E-02
       1240      2.2086090E+00  6.0010865E-02  6.2571162E-02
       1242      2.3504340E+00  2.4224248E-02  3.2893041E-02
       1243      3.0000000E+00  0.0000000E+00  0.0000000E+00
       1244      3.0000000E+00  0.0000000E+00  0.0000000E+00
       1245      3.0000000E+00  0.0000000E+00  0.0000000E+00
       1246      2.5224179E+00 -2.2898136E-01  1.9538718E-01
       1247      3.0000000E+00  0.0000000E+00  0.0000000E+00
       1248      3.0000000E+00  0.0000000E+00  0.0000000E+00
       1250      2.3121268E+00 -8.3358892E-02  4.3191181E-02
       1251      2.5907261E+00  4.0435080E-02 -5.5120083E-02
       1252      3.0000000E+00  0.0000000E+00  0.0000000E+00
       1253      3.0000000E+00  0.0000000E+00  0.0000000E+00
       1254      3.0000000E+00  0.0000000E+00  0.0000000E+00
       1255      3.0000000E+00  0.0000000E+00  0.0000000E+00
       1256      3.0000000E+00  0.0000000E+00  0.0000000E+00
       1257      3.0000000E+00  0.0000000E+00  0.0000000E+00
       1258      3.0000000E+00  0.0000000E+00  0.0000000E+00
       1259      1.6950691E+00  8.1424168E-02  6.1759209E-02
       1261      3.0000000E+00  0.0000000E+00  0.0000000E+00
       1262      3.0000000E+00  0.0000000E+00  0.0000000E+00
       1263      3.0000000E+00  0.0000000E+00  0.0000000E+00
       1264      1.4783759E+00  4.4403262E-01 -1.1278246E-01
       1265      1.5401028E+00  5.1005203E-01 -4.9492857E-02
       1266      8.3357175E-01  1.1184974E-01  1.4997551E-01
       1267      3.0000000E+00  0.0000000E+00  0.0000000E+00
       1268      4.2578758E-01  4.2264953E-02  1.8373637E-01
       1269      2.5234065E-01  2.4811607E-02  1.2332298E-01
       1270      6.7368266E-01  3.2177124E-01  2.4482485E-01
       1271      3.0000000E+00  0.0000000E+00  0.0000000E+00
       1273      6.8858272E-01  2.3273903E-01  5.0323117E-02
       1274      2.8078598E-01  3.8820286E-03 -1.0882353E-03
       1275      3.0000000E+00  0.0000000E+00  0.0000000E+00
       1276      3.0000000E+00  0.0000000E+00  0.0000000E+00
       1277      4.7865040E-01 -6.0247721E-02 -3.2948666E-02
       1281      2.2120201E+00 -6.4449849E-02 -9.3323614E-03
       1282      3.0000000E+00  0.0000000E+00  0.0000000E+00
       1283      3.0000000E+00  0.0000000E+00  0.0000000E+00
       1284      2.6139652E+00 -2.4204465E-02  4.6846151E-02
       1285      3.0000000E+00  0.0000000E+00  0.0000000E+00
       1286      3.0000000E+00  0.0000000E+00  0.0000000E+00
       1287      3.0000000E+00  0.0000000E+00  0.0000000E+00
       1288      3.0000000E+00  0.0000000E+00  0.0000000E+00
       1289      3.0000000E+00  0.0000000E+00  0.0000000E+00
       1291      1.3926034E+00 -5.7308214E-01 -1.2385075E-01

 MAXIMUM          3.000      0.5170      0.2623    
 AT NODE                 1         468          56

 MINIMUM          0.000     -0.6505     -0.2700    
 AT NODE                27        1184        1187


          THE ANALYSIS HAS BEEN COMPLETED



                              ANALYSIS COMPLETE
                              WITH      2 WARNING MESSAGES ON THE DAT FILE



     JOB TIME SUMMARY
       USER TIME (SEC)      =   1.5000    
       SYSTEM TIME (SEC)    =  0.40000    
       TOTAL CPU TIME (SEC) =   1.9000    
       WALLCLOCK TIME (SEC) =          1
