*Heading
** Job name: Uniaxial_7MMDisp_test Model name: Model-1
** Generated by: Abaqus/CAE 2021
*Preprint, echo=NO, model=NO, history=NO, contact=NO
**
** PARTS
**
*Part, name=Part-1
*End Part
**  
**
** ASSEMBLY
**
*Assembly, name=Assembly
**  
*Instance, name=Part-1-1, part=Part-1
*Node
      1,          20.,           4.,          8.5
      2,          20.,          3.5,          8.5
      3,          20.,           3.,          8.5
      4,          20.,          2.5,          8.5
      5,          20.,           2.,          8.5
      6,          20.,          1.5,          8.5
      7,          20.,           1.,          8.5
      8,          20.,          0.5,          8.5
      9,          20.,           0.,          8.5
     10,          20.,         -0.5,          8.5
     11,          20.,          -1.,          8.5
     12,          20.,         -1.5,          8.5
     13,          20.,          -2.,          8.5
     14,          20.,         -2.5,          8.5
     15,          20.,          -3.,          8.5
     16,          20.,         -3.5,          8.5
     17,          20.,          -4.,          8.5
     18,          20.,           4.,           8.
     19,          20.,          3.5,           8.
     20,          20.,           3.,           8.
** ... 28744 like lines cut
*Element, type=C3D8RH
    1,   307,   308,   325,   324,     1,     2,    19,    18
    2,   308,   309,   326,   325,     2,     3,    20,    19
    3,   309,   310,   327,   326,     3,     4,    21,    20
    4,   310,   311,   328,   327,     4,     5,    22,    21
    5,   311,   312,   329,   328,     5,     6,    23,    22
    6,   312,   313,   330,   329,     6,     7,    24,    23
    7,   313,   314,   331,   330,     7,     8,    25,    24
    8,   314,   315,   332,   331,     8,     9,    26,    25
    9,   315,   316,   333,   332,     9,    10,    27,    26
   10,   316,   317,   334,   333,    10,    11,    28,    27
   11,   317,   318,   335,   334,    11,    12,    29,    28
   12,   318,   319,   336,   335,    12,    13,    30,    29
   13,   319,   320,   337,   336,    13,    14,    31,    30
   14,   320,   321,   338,   337,    14,    15,    32,    31
   15,   321,   322,   339,   338,    15,    16,    33,    32
   16,   322,   323,   340,   339,    16,    17,    34,    33
   17,   324,   325,   342,   341,    18,    19,    36,    35
   18,   325,   326,   343,   342,    19,    20,    37,    36
   19,   326,   327,   344,   343,    20,    21,    38,    37
   20,   327,   328,   345,   344,    21,    22,    39,    38
** ... 25276 like lines cut
*Nset, nset=Set-1, generate
     1,  28764,      1
*Elset, elset=Set-1, generate
     1,  25296,      1
** Section: Section-1
*Solid Section, elset=Set-1, controls=EC-1, material=Material-1
,
*End Instance
**  
*Nset, nset=RP, instance=Part-1-1, generate
     1,  28764,      1
*Elset, elset=RP, instance=Part-1-1, generate
     1,  25296,      1
*Nset, nset=Set-1, instance=Part-1-1, generate
   1,  306,    1
*Elset, elset=Set-1, instance=Part-1-1, generate
   1,  272,    1
*Nset, nset=Set-2, instance=Part-1-1, generate
 28459,  28764,      1
*Elset, elset=Set-2, instance=Part-1-1, generate
 25025,  25296,      1
*End Assembly
** 
** ELEMENT CONTROLS
** 
*Section Controls, name=EC-1, hourglass=ENHANCED
1., 1., 1.
** 
** MATERIALS
** 
*Material, name=Material-1
*Hyperelastic, n=3, ogden
 0.4017,     1.3, 0.00295,      5., 0.00981,     -2.,      0.,      0.
      0.,
** ----------------------------------------------------------------
** 
** STEP: Step-1
** 
*Step, name=Step-1, nlgeom=YES
*Static, direct
0.0714286, 1., 
** 
** BOUNDARY CONDITIONS
** 
** Name: BC-1 Type: Displacement/Rotation
*Boundary
Set-1, 1, 1, 7.
Set-1, 2, 2
Set-1, 3, 3
Set-1, 4, 4
Set-1, 5, 5
Set-1, 6, 6
** Name: BC-2 Type: Symmetry/Antisymmetry/Encastre
*Boundary
Set-2, ENCASTRE
** 
** OUTPUT REQUESTS
** 
*Restart, write, frequency=0
** 
** FIELD OUTPUT: F-Output-1
** 
*Output, field, variable=PRESELECT
** 
** HISTORY OUTPUT: H-Output-1
** 
*Output, history, variable=PRESELECT
*NODE PRINT, nset=RP, frequency=1
U1,U2,U3
*End Step